Mass Spectrum: N-Acetylglucosamine, 4TMS derivative
Formula: C20H47NO6Si4
CAS: 55517-99-2
Molecular weight: 509
m/z	intensity
39	4
40	12
41	13
42	13
43	112
44	21
45	93
46	5
47	22
52	2
53	5
54	7
55	15
56	11
57	5
58	11
59	45
60	6
61	17
66	2
67	6
68	10
69	10
70	8
71	5
72	22
73	999
74	97
75	235
76	16
77	13
79	3
80	20
81	7
82	4
83	7
84	10
85	6
86	3
87	6
88	5
89	20
90	2
94	3
96	13
97	3
98	11
99	44
100	37
101	24
102	10
103	87
104	9
105	7
108	6
109	2
110	2
111	5
112	6
113	10
114	8
115	19
116	86
117	68
118	15
119	8
120	1
121	3
122	24
123	2
124	5
125	2
126	4
127	4
128	17
129	50
130	20
131	168
132	34
133	62
134	9
135	8
136	3
138	1
140	3
141	2
142	15
143	18
144	43
145	16
146	4
147	199
148	32
149	35
150	8
151	3
152	3
153	2
154	3
155	5
156	20
157	19
158	31
159	10
160	10
161	3
163	2
168	15
169	26
170	26
171	7
172	15
173	741
174	118
175	40
176	4
177	7
182	12
183	5
184	10
185	4
186	96
187	22
188	6
189	15
190	6
191	55
192	10
193	5
196	6
197	3
198	14
199	5
200	2
201	2
202	5
203	10
204	56
205	34
206	10
207	7
208	1
210	5
211	17
212	11
213	2
214	7
215	5
216	6
217	76
218	65
219	17
220	6
221	4
224	6
225	1
226	5
227	1
229	3
230	8
231	8
232	8
233	174
234	35
235	15
236	2
240	5
242	7
243	7
244	7
245	7
246	20
247	6
248	3
256	1
257	7
258	10
259	45
260	19
261	6
262	1
265	2
271	1
272	7
273	2
274	11
275	4
276	1
284	1
286	6
287	7
288	14
289	3
300	1
301	2
304	3
305	42
306	13
307	6
314	19
315	5
316	4
317	2
318	1
319	6
320	1
332	1
333	1
346	3
347	3
360	4
362	2
404	3
406	2
494	13
495	4
496	2
