Mass Spectrum: Pregn-5-ene-3,20-diol, (3.alpha.)-, 2TMS derivative
Formula: C27H50O2Si2
CAS: 55515-25-8
Molecular weight: 462
m/z	intensity
103	13
105	1
106	1
107	15
108	3
109	1
111	15
112	3
115	11
116	5
117	999
118	127
119	72
120	9
121	15
123	11
129	167
130	19
131	22
132	45
133	19
134	3
135	34
143	19
144	3
145	45
146	7
147	19
148	3
155	13
157	3
158	3
160	3
161	15
171	3
173	3
189	3
191	11
199	5
201	9
207	42
211	7
213	7
219	22
221	15
223	3
229	7
243	19
254	7
255	3
256	11
257	11
267	38
282	43
283	11
313	11
327	3
332	15
333	11
339	3
341	15
355	11
357	15
372	57
373	19
447	9
462	38
463	13
