Mass Spectrum: N-Acetyl-L-glutamic acid, 3TMS derivative
Formula: C16H35NO5Si3
CAS: 55517-49-2
Molecular weight: 405
m/z	intensity
39	6
41	30
42	33
43	152
44	31
45	187
46	9
47	44
53	3
54	6
55	42
56	31
57	9
58	15
59	35
60	6
61	21
67	6
68	59
69	7
70	2
71	2
72	33
73	999
74	93
75	334
76	21
77	15
80	7
81	3
82	15
83	4
84	98
85	22
86	6
88	3
89	3
95	4
98	7
99	5
100	18
101	21
102	2
103	9
108	4
112	5
114	9
115	9
116	96
117	20
118	3
119	2
123	53
124	1
126	9
127	1
128	23
129	46
130	12
131	17
132	6
133	36
134	4
135	5
136	14
140	6
142	35
143	12
144	8
147	159
148	23
149	37
150	2
154	6
155	7
156	205
157	43
158	26
159	7
170	25
171	13
172	4
174	3
184	38
185	8
186	16
191	3
197	5
198	52
199	12
200	6
203	2
204	20
205	4
216	6
218	6
228	6
230	13
231	2
232	1
244	136
245	30
246	17
260	1
261	7
274	53
275	10
276	4
287	10
288	92
289	20
290	7
315	9
316	1
318	2
348	7
349	1
362	7
390	35
391	10
392	3
405	7
406	3
