Mass Spectrum: 4-Pyridinecarboxylic acid, 2-methyl-5-[(trimethylsilyl)oxy]-3-[[(trimethylsilyl)oxy]methyl]-, trimethylsilyl ester
Formula: C17H33NO4Si3
CAS: 55517-52-7
Molecular weight: 399
m/z	intensity
40	133
43	21
44	123
45	166
47	50
49	20
72	8
73	999
74	88
75	316
76	13
77	171
79	9
93	26
120	20
131	21
133	62
147	514
148	91
149	51
191	8
192	18
207	8
221	23
222	293
223	49
224	7
239	15
252	19
266	296
267	72
268	26
280	33
281	42
282	10
294	18
296	265
297	57
298	17
309	744
310	218
311	94
312	12
340	13
384	427
385	131
386	65
399	127
400	40
401	10
