Mass Spectrum: 3-Cyclohexene-1-methanol, .alpha.,4-dimethyl-
Formula: C9H16O
CAS: 55511-67-6
Molecular weight: 140
m/z	intensity
26	0
27	72
28	0
29	47
30	0
31	7
37	0
38	2
39	60
40	4
41	78
42	7
43	94
44	3
45	157
46	4
47	0
50	3
51	14
52	5
53	48
54	37
55	114
56	8
57	18
58	4
59	5
60	1
61	0
62	0
63	1
64	1
65	21
66	8
67	193
68	79
69	16
70	8
71	35
72	2
73	1
74	1
75	0
76	0
77	77
78	13
79	200
80	55
81	122
82	23
83	2
84	10
85	5
86	0
89	1
90	0
91	108
92	72
93	999
94	145
95	103
96	42
97	17
98	1
99	0
103	1
104	0
105	19
106	2
107	311
108	27
109	2
111	1
112	0
115	0
121	9
122	436
123	44
124	2
125	12
126	1
138	1
139	1
140	147
141	12
142	0
