Mass Spectrum: Ergosta-14,22-dien-3-ol, acetate, (3.alpha.,5.beta.,22E)-
Formula: C30H50O2
CAS: 55515-03-2
Molecular weight: 442
m/z	intensity
50	12
51	13
52	6
53	79
54	26
55	908
56	45
57	216
58	8
59	1
60	142
61	12
62	1
63	3
64	0
65	27
66	17
67	520
68	113
69	999
70	112
71	92
72	5
73	1
74	3
75	1
76	1
77	110
78	71
79	387
80	70
81	817
82	229
83	445
84	46
85	12
86	5
87	1
88	0
89	2
90	1
91	271
92	60
93	554
94	203
95	644
96	220
97	62
98	9
99	2
100	4
101	3
102	1
103	8
104	10
105	261
106	103
107	605
108	191
109	593
110	80
111	39
112	0
113	1
114	4
115	13
116	6
117	44
118	27
119	161
120	76
121	313
122	101
123	189
124	56
125	102
126	11
127	2
128	3
129	10
130	8
131	72
132	22
133	167
134	72
135	264
136	39
137	98
138	14
139	3
140	0
141	5
142	7
143	16
144	9
145	94
146	47
147	318
148	68
149	259
150	34
151	30
152	95
153	13
154	1
155	3
156	2
157	12
158	9
159	107
160	51
161	288
162	66
163	166
164	29
165	15
166	35
167	5
168	1
169	1
170	1
171	13
172	6
173	60
174	44
175	210
176	48
177	56
178	9
179	9
180	3
183	3
184	1
185	18
186	8
187	66
188	27
189	81
190	18
191	21
192	4
193	3
197	2
198	1
199	24
200	14
201	152
202	56
203	73
204	14
205	6
206	2
207	3
211	2
212	1
213	42
214	39
215	196
216	78
217	71
218	13
219	5
220	6
221	1
226	0
227	34
228	27
229	131
230	79
231	49
232	8
233	3
234	2
235	3
239	2
240	1
241	43
242	102
243	54
244	14
245	19
246	3
247	2
252	1
253	4
254	25
255	307
256	213
257	769
258	155
259	19
260	2
261	2
262	0
264	4
265	1
268	1
269	101
270	28
271	13
272	8
273	6
274	6
275	6
276	2
281	1
282	1
283	54
284	366
285	176
286	34
287	6
288	9
289	3
290	3
296	1
297	8
298	32
299	9
300	3
301	2
302	28
303	7
304	2
309	2
310	1
311	11
312	8
313	5
314	27
315	187
316	64
317	13
318	1
325	4
326	5
327	5
328	30
329	51
330	14
331	3
337	1
338	1
339	203
340	61
341	9
342	1
343	15
344	100
345	26
346	3
353	2
354	2
355	1
356	0
357	0
358	18
359	4
360	1
365	3
366	1
367	76
368	23
369	4
370	0
380	6
381	6
382	270
383	78
384	14
385	2
398	1
399	3
400	2
427	13
428	5
429	1
440	1
441	1
442	172
443	58
444	11
445	2
