Mass Spectrum: Lanost-7-en-3-ol, acetate, (3.beta.,9.beta.,13.alpha.,14.beta.,17.alpha.)-
Formula: C32H54O2
CAS: 55515-27-0
Molecular weight: 470
m/z	intensity
39	44
41	481
42	40
43	999
44	33
53	51
54	12
55	704
56	65
57	581
58	25
59	11
60	11
65	22
66	10
67	269
68	52
69	842
70	67
71	316
72	25
77	76
78	20
79	249
80	58
81	584
82	145
83	402
84	38
85	100
91	219
92	130
93	395
94	151
95	756
96	109
97	214
98	23
99	29
105	431
106	120
107	522
108	138
109	456
110	72
111	148
112	21
113	29
117	84
118	39
119	460
120	149
121	474
122	406
123	319
124	53
125	68
127	33
128	23
129	52
130	32
131	188
132	87
133	429
134	226
135	759
136	174
137	127
138	29
143	85
144	40
145	259
146	76
147	344
148	154
149	255
150	54
151	62
155	23
156	18
157	103
158	43
159	280
160	75
161	260
162	65
163	114
164	27
165	37
171	91
172	44
173	317
174	91
175	344
176	62
177	69
178	18
179	34
180	51
181	15
185	86
186	36
187	203
188	74
189	143
190	33
191	60
192	29
193	74
199	91
200	41
201	210
202	83
203	173
204	42
205	56
206	282
207	128
208	32
213	134
214	60
215	152
216	119
217	184
218	42
219	58
220	147
221	83
227	176
228	91
229	329
230	80
231	44
233	59
234	23
239	22
240	24
241	112
242	36
243	66
244	15
245	32
246	39
247	47
248	22
255	293
256	75
257	69
259	51
260	29
261	54
262	25
269	44
270	228
271	79
272	20
273	160
274	78
275	141
276	80
277	34
283	43
287	55
288	214
289	159
290	47
297	328
298	86
299	36
301	55
302	44
303	22
313	24
314	19
315	179
316	125
317	35
325	35
326	12
327	21
329	21
330	56
331	15
339	17
341	28
343	29
344	16
353	18
355	22
356	13
357	171
358	59
367	22
369	18
385	22
393	25
394	11
395	821
396	260
397	50
410	200
411	85
412	21
455	890
456	302
457	54
470	950
471	358
472	65
