Mass Spectrum: Ergosta-14,22-dien-3-ol, (3.beta.,5.alpha.,22E)-
Formula: C28H46O
CAS: 55514-97-1
Molecular weight: 398
m/z	intensity
50	21
51	29
52	22
53	88
54	22
55	941
56	81
57	300
58	26
59	14
60	3
61	6
62	6
63	30
64	32
65	48
66	21
67	319
68	43
69	999
70	93
71	132
72	11
73	6
74	17
75	21
76	26
77	91
78	43
79	313
80	68
81	779
82	232
83	252
84	37
85	29
86	47
87	9
88	13
89	15
90	4
91	468
92	124
93	523
94	193
95	399
96	60
97	74
98	15
99	11
100	4
101	14
102	18
103	32
104	26
105	448
106	121
107	524
108	114
109	252
110	33
111	46
112	8
113	5
114	3
115	46
116	29
117	137
118	49
119	283
120	109
121	303
122	58
123	107
124	118
125	212
126	6
127	3
128	44
129	68
130	39
131	190
132	63
133	243
134	86
135	189
136	30
137	40
138	10
139	5
140	4
141	25
142	20
143	71
144	35
145	196
146	141
147	521
148	96
149	136
150	43
151	106
152	27
153	11
154	7
155	19
156	13
157	51
158	25
159	167
160	74
161	407
162	55
163	60
164	54
165	22
166	6
167	10
168	12
169	16
170	9
171	45
172	23
173	97
174	30
175	66
176	12
177	20
178	12
179	10
180	3
181	7
182	4
183	16
184	7
185	48
186	18
187	59
188	16
189	62
190	12
191	13
192	6
193	2
194	2
195	5
196	2
197	18
198	7
199	52
200	20
201	51
202	14
203	28
204	25
205	14
206	12
207	4
208	3
209	4
210	2
211	24
212	11
213	68
214	21
215	72
216	18
217	46
218	31
219	14
220	4
221	1
222	2
223	5
224	3
225	9
226	6
227	36
228	59
229	220
230	45
231	50
232	24
233	57
234	10
235	3
236	2
237	7
238	6
239	40
240	16
241	41
242	12
243	11
244	31
245	28
246	128
247	51
248	8
249	6
250	1
251	5
252	6
253	57
254	187
255	268
256	56
257	98
258	30
259	31
260	8
261	1
267	6
268	6
269	35
270	150
271	216
272	647
273	331
274	55
275	5
279	1
280	0
281	36
282	11
283	9
284	3
285	13
286	13
287	6
288	0
294	0
295	6
296	3
297	18
298	12
299	133
300	44
301	7
302	2
307	1
308	1
309	50
310	16
311	6
312	3
313	11
314	4
315	2
316	1
323	3
324	1
325	43
326	19
327	150
328	40
329	5
330	1
337	15
338	4
339	4
340	2
341	7
342	1
351	2
352	2
353	12
354	3
355	28
356	6
357	1
363	3
364	2
365	46
366	14
367	5
368	3
369	5
370	3
376	1
377	1
378	3
379	4
380	81
381	46
382	14
383	107
384	33
385	5
394	4
395	2
396	55
397	19
398	239
399	73
400	12
