Mass Spectrum: Phenylglyoxylic acid, TMS derivative
Formula: C11H14O3Si
CAS: 55517-36-7
Molecular weight: 222
m/z	intensity
24	1
26	5
27	12
28	20
29	13
30	1
31	5
33	0
37	2
38	4
39	9
40	2
41	1
42	5
43	43
44	45
45	126
46	8
47	22
48	1
49	3
50	36
51	132
52	18
53	5
54	1
55	6
56	1
57	6
58	18
59	17
60	2
61	4
62	2
63	3
64	0
65	2
66	22
67	2
68	0
69	3
70	2
71	2
72	14
73	999
74	86
75	90
76	19
77	336
78	27
79	2
81	1
82	1
83	0
84	0
85	1
86	0
87	1
88	0
89	2
90	2
91	5
92	0
93	1
94	0
95	1
96	0
97	0
99	0
100	0
101	1
102	1
103	2
104	78
105	453
106	39
107	5
108	0
109	1
113	0
114	0
115	0
117	12
118	2
119	3
120	1
121	3
122	3
123	0
129	0
130	0
131	12
132	2
133	5
134	1
135	131
136	18
137	6
138	0
139	0
143	0
145	0
146	0
148	10
149	12
150	2
151	1
152	0
153	0
159	0
160	0
161	1
162	0
163	92
164	14
165	5
166	0
169	0
175	0
177	96
178	70
179	39
180	7
181	2
182	0
189	0
191	0
193	0
194	0
195	0
199	0
205	0
206	0
207	105
208	19
209	6
210	0
220	0
221	2
222	0
223	0
225	0
