Mass Spectrum: L-Arginine, 5TMS derivative
Formula: C21H54N4O2Si5
CAS: 55517-81-2
Molecular weight: 534
m/z	intensity
39	5
41	22
42	23
43	113
44	51
45	139
46	16
47	18
49	1
51	8
52	15
53	2
54	2
55	17
56	38
57	32
58	37
59	100
60	18
61	12
63	7
64	19
66	67
67	9
68	34
69	38
70	480
71	45
72	33
73	999
74	178
75	139
76	16
77	16
78	47
79	2
83	4
84	25
85	26
86	22
87	23
88	14
89	9
90	25
91	9
96	4
97	19
98	10
99	82
100	75
101	25
102	78
103	21
104	5
105	5
110	1
111	6
112	7
113	11
114	26
115	95
116	40
117	32
118	6
119	3
120	25
125	1
126	11
127	12
128	54
129	20
130	88
131	48
132	30
133	26
134	6
135	1
139	1
140	12
141	44
142	147
143	34
144	29
145	9
146	100
147	553
148	110
149	48
150	5
151	1
152	10
153	31
154	10
155	27
156	20
157	61
158	26
159	52
160	16
161	7
162	9
165	8
168	6
169	45
170	26
171	481
172	113
173	62
174	23
175	6
184	11
185	10
186	53
187	336
188	138
189	58
190	16
191	11
192	1
200	12
201	10
202	27
203	24
204	32
205	9
213	2
214	12
215	11
216	97
217	36
218	28
219	10
221	5
228	13
229	15
230	112
231	146
232	40
233	16
234	1
240	4
241	1
242	8
243	44
244	423
245	105
246	45
247	7
256	25
257	11
258	32
259	82
260	40
261	36
262	10
263	2
273	4
275	2
276	40
277	10
278	4
288	4
302	11
303	12
304	2
316	45
317	15
318	8
333	8
345	15
346	9
347	8
348	15
349	5
358	2
373	5
374	1
375	3
388	2
390	12
391	4
417	5
447	16
448	6
449	1
462	109
463	47
464	26
465	7
519	5
534	42
535	21
536	12
537	2
