Mass Spectrum: L-Tyrosine, N-[N-[N-[(phenylmethoxy)carbonyl]-L-seryl]-L-leucyl]-, methyl ester
Formula: C27H35N3O8
CAS: 55517-95-8
Molecular weight: 529
m/z	intensity
41	30
42	30
43	30
44	40
50	50
51	100
52	20
53	30
54	10
55	50
56	40
57	40
58	80
59	10
60	20
61	10
62	20
63	50
64	20
65	100
66	10
70	40
72	20
73	30
74	40
75	10
76	20
77	420
78	80
79	710
80	100
81	20
83	20
84	30
85	30
86	430
87	40
88	20
89	80
90	100
91	970
92	100
93	10
94	20
95	10
96	10
97	30
98	20
99	20
100	20
105	50
106	20
107	999
108	820
109	70
111	20
112	10
113	40
114	40
115	20
116	10
118	10
119	30
120	20
122	10
125	20
126	50
127	30
128	30
129	10
131	30
132	10
134	30
135	30
136	80
137	20
138	30
139	30
140	20
141	20
142	20
143	20
144	20
147	100
148	30
149	10
150	70
151	40
152	10
153	20
154	10
155	40
156	20
157	50
158	10
159	20
160	10
161	10
162	30
163	20
164	10
165	20
166	20
167	20
168	20
169	20
170	200
171	30
172	10
173	50
174	10
176	100
177	40
178	490
179	100
180	10
181	100
182	40
183	30
184	10
185	10
199	140
221	20
222	70
223	20
225	20
226	180
227	80
228	30
241	30
242	40
243	20
244	150
245	70
246	20
250	20
260	10
261	20
264	70
265	10
269	30
270	10
277	20
278	30
279	10
280	10
284	20
285	10
286	20
292	20
294	20
295	20
301	20
302	20
304	60
305	10
307	170
308	100
309	20
314	20
316	50
317	20
318	20
319	10
320	20
321	10
322	10
334	30
335	180
336	50
337	10
351	40
352	180
353	40
354	10
363	14
364	3
365	1
366	15
367	3
368	4
369	5
372	2
373	8
374	1
376	2
377	15
378	4
403	13
404	3
405	7
406	2
407	5
421	22
422	9
423	7
424	2
473	5
474	1
498	4
499	17
500	5
510	2
511	5
512	2
513	1
514	4
515	1
529	10
530	4
