Mass Spectrum: Cycloserine, 3TMS derivative
Formula: C12H30N2O2Si3
CAS: 55517-42-5
Molecular weight: 318
m/z	intensity
39	2
40	8
41	13
42	29
43	131
44	56
45	233
46	21
47	37
52	2
53	7
54	9
55	19
56	29
57	21
58	42
59	119
60	21
61	21
66	2
68	3
69	2
70	67
71	13
72	87
73	999
74	138
75	208
76	16
77	10
84	22
85	12
86	107
87	17
88	30
89	122
90	13
91	5
98	5
99	13
100	349
101	108
102	96
103	18
104	6
113	4
114	4
115	29
116	187
117	57
118	13
119	2
127	7
128	9
129	8
130	22
131	66
132	19
133	16
134	1
141	2
142	7
143	25
144	6
146	36
147	72
148	18
149	7
156	6
157	2
158	8
159	7
171	25
172	29
173	19
174	13
175	3
187	2
188	33
189	13
190	3
201	64
202	14
203	28
204	6
205	1
215	6
216	72
217	15
218	6
231	24
232	4
246	2
303	10
304	2
