Mass Spectrum: Benzene, (1-hexadecylheptadecyl)-
Formula: C39H72
CAS: 55517-74-3
Molecular weight: 540
m/z	intensity
12	3
13	2
14	5
15	12
16	6
17	5
18	18
25	3
26	17
27	68
28	46
29	128
30	5
37	3
38	4
39	40
40	9
41	197
42	53
43	409
44	15
50	4
51	7
52	3
53	11
54	19
55	179
56	63
57	371
58	17
65	4
66	2
67	26
68	14
69	99
70	34
71	150
72	8
77	6
78	10
79	9
80	3
81	17
82	14
83	76
84	15
85	86
86	6
90	3
91	999
92	113
93	8
94	2
95	10
96	6
97	44
98	7
99	17
100	2
103	8
104	148
105	170
106	17
107	2
109	4
110	2
111	17
112	3
113	11
115	9
116	5
117	90
118	60
119	72
120	8
123	2
125	6
126	2
127	8
128	3
129	7
130	6
131	43
132	9
133	51
134	6
139	2
141	6
143	4
144	2
145	8
146	2
147	43
148	6
155	4
157	2
159	3
161	34
162	5
167	2
169	3
174	2
175	26
176	4
181	3
183	2
189	20
190	3
203	17
204	4
207	2
211	4
217	14
218	3
222	5
223	2
231	11
232	2
245	8
246	2
259	7
260	2
273	6
274	2
301	3
302	2
313	5
314	30
315	222
316	84
317	14
318	2
328	4
329	4
330	2
357	2
532	3
534	3
538	3
539	2
540	40
541	18
542	4
