Mass Spectrum: 2,3-Dihydroxypropyl icosanoate, 2TMS derivative
Formula: C29H62O4Si2
CAS: 55517-94-7
Molecular weight: 530
m/z	intensity
26	10
27	90
28	60
29	250
30	10
31	20
32	10
39	50
40	10
41	500
42	120
43	999
44	50
45	90
46	10
47	30
53	20
54	40
55	490
56	130
57	700
58	60
59	80
60	40
61	40
67	90
68	40
69	250
70	60
71	320
72	40
73	740
74	90
75	340
76	20
77	30
79	20
80	10
81	100
82	30
83	190
84	110
85	200
86	20
87	30
88	20
89	50
90	10
91	10
93	20
94	10
95	140
96	30
97	150
98	130
99	70
100	10
101	150
102	20
103	230
104	20
105	20
107	20
109	90
110	10
111	80
112	40
113	40
114	10
115	30
116	170
117	480
118	50
119	30
121	30
123	50
124	10
125	40
126	10
127	20
128	10
129	310
130	150
131	300
132	80
133	160
134	30
135	40
137	40
139	20
140	10
141	20
143	10
145	80
146	50
147	370
148	60
149	100
150	20
151	20
153	10
154	20
155	10
156	10
157	10
159	20
163	20
165	20
171	20
175	50
176	10
177	20
185	20
187	40
188	20
189	60
190	60
191	90
192	20
193	20
201	40
202	10
203	200
204	60
205	150
206	40
207	70
208	20
209	10
217	10
218	30
219	20
220	10
221	90
222	20
223	20
295	140
296	30
369	50
370	10
411	30
412	10
427	320
428	100
429	30
445	40
446	20
515	30
516	10
