Mass Spectrum: Acetic acid, bis[(trimethylsilyl)oxyl]-, trimethylsilyl ester
Formula: C11H28O4Si3
CAS: 55517-38-9
Molecular weight: 308
m/z	intensity
42	19
43	36
44	36
45	159
46	7
47	33
55	6
57	8
58	19
59	42
60	1
61	10
66	2
69	1
71	2
72	41
73	999
74	85
75	123
76	5
77	21
101	3
103	38
104	2
105	8
110	10
115	8
117	15
119	4
131	64
132	9
133	62
134	16
135	7
147	596
148	98
149	58
150	3
151	1
163	2
175	2
177	21
184	14
191	593
192	103
193	51
194	4
205	2
221	95
222	23
223	7
228	21
265	60
266	15
267	8
293	37
294	9
295	1
