Mass Spectrum: Butanedioic acid, oxo(trimethylsilyl)-, bis(trimethylsilyl) ester
Formula: C13H28O5Si3
CAS: 55517-46-9
Molecular weight: 348
m/z	intensity
14	8
15	21
16	6
17	20
18	80
27	7
28	107
29	16
31	7
32	13
39	8
41	8
43	51
44	54
45	246
46	18
47	32
53	12
55	12
57	14
58	14
59	37
61	19
67	15
68	10
69	131
70	11
71	10
72	39
73	999
74	89
75	157
76	11
77	8
83	10
85	9
99	69
100	8
103	8
114	10
117	14
119	8
127	16
131	41
133	73
134	11
135	9
142	42
143	28
147	769
148	122
149	88
150	11
151	6
157	25
163	25
171	127
172	17
173	23
175	8
190	33
191	9
201	8
207	8
215	15
217	12
221	84
222	20
223	11
231	112
232	24
233	11
245	12
259	6
269	15
279	31
280	11
305	50
306	15
307	8
333	204
334	60
335	31
336	7
