Mass Spectrum: Chromium, (cadmium)hexacarbonylbis(.eta.5-2,4-cyclopentadien-1-yl)di-, (2Cd-Cr)
Formula: C16H10CdCr2O6
CAS: 55518-02-0
Molecular weight: 516
m/z	intensity
52	950
114	130
117	999
129	6
145	240
173	170
182	64
201	120
231	8
234	23
259	3
262	6
290	4
315	9
318	6
516	17
