Mass Spectrum: 5-Hydroxymethyl-2-furoic acid, 2TMS derivative
Formula: C12H22O4Si2
CAS: 55517-40-3
Molecular weight: 286
m/z	intensity
15	55
17	18
18	69
26	19
27	19
28	12
29	21
39	27
41	18
42	16
43	75
44	61
45	196
47	47
51	43
52	112
53	21
58	26
59	86
61	24
66	65
72	26
73	999
74	92
75	236
76	20
77	39
78	21
79	68
80	30
81	21
83	18
85	26
91	26
95	40
96	18
106	29
109	17
111	56
113	19
123	332
124	29
128	91
133	62
147	694
148	112
149	79
153	58
154	13
169	277
170	41
171	17
197	174
198	31
199	14
227	18
243	13
271	421
272	97
273	42
286	29
