Mass Spectrum: Gonane-12,17-dione, 3-(acetyloxy)-5,14-dimethyl-, (3.beta.,5.beta.,8.alpha.,9.beta.,10.alpha.,13.xi.)-
Formula: C21H30O4
CAS: 55515-20-3
Molecular weight: 346
m/z	intensity
43	999
44	58
53	78
54	4
55	277
56	58
57	99
67	175
68	15
69	99
77	78
78	58
79	198
80	36
81	180
91	180
92	36
93	180
94	78
95	135
96	38
97	78
105	135
106	36
107	112
108	38
109	99
110	56
119	74
120	40
121	101
122	18
123	355
124	38
125	38
131	85
132	18
133	94
134	38
135	78
136	15
137	15
138	454
139	99
140	18
145	94
146	78
147	139
148	112
149	78
150	15
151	337
152	58
159	58
160	18
161	40
253	40
254	6
268	38
269	18
286	76
287	18
303	58
304	40
331	18
332	4
346	40
347	4
