Mass Spectrum: Butanoic acid, 2,3-dimethyl-2-(1-methylethyl)-, methyl ester
Formula: C10H20O2
CAS: 55519-33-0
Molecular weight: 172
m/z	intensity
26	15
27	72
29	48
30	2
31	10
33	10
39	71
40	29
41	184
42	19
43	141
44	12
45	4
50	1
51	6
52	7
53	24
54	6
55	112
56	6
57	214
58	22
59	154
60	2
61	13
66	12
67	11
68	4
69	74
70	13
71	37
73	85
74	10
75	10
76	5
81	8
82	12
83	116
84	12
85	4
87	15
88	7
94	9
95	12
96	13
97	33
98	44
99	5
105	6
106	10
108	7
110	4
111	8
112	24
113	125
114	3
115	999
116	41
117	11
128	10
129	62
130	459
131	48
133	9
