Mass Spectrum: D-erythro-2-Pentulose, 1,3,4-tris-O-(trimethylsilyl)-, 5-[bis(trimethylsilyl) phosphate]
Formula: C20H51O8PSi5
CAS: 55520-87-1
Molecular weight: 590
m/z	intensity
41	18
42	4
43	20
44	16
45	72
46	8
47	12
53	8
54	4
55	14
56	4
57	6
58	10
59	42
60	6
61	10
63	2
65	2
66	4
67	4
68	4
69	8
70	2
71	4
72	20
73	999
74	86
75	110
76	8
77	10
79	2
81	8
83	2
85	6
87	4
88	6
89	10
91	2
93	6
95	4
96	2
97	4
98	2
99	8
100	2
101	44
102	8
103	70
104	8
105	6
111	4
113	14
114	4
115	12
116	16
117	24
118	6
119	10
121	6
127	8
128	4
129	102
130	16
131	20
132	4
133	80
134	14
135	20
136	4
137	6
140	2
141	6
142	8
143	20
144	4
145	8
146	4
147	189
148	34
149	32
150	6
151	8
153	4
154	2
155	6
156	4
157	14
158	4
159	6
161	4
163	4
165	2
167	4
168	4
169	24
170	6
171	12
172	2
173	4
175	4
177	4
179	2
181	6
183	2
184	2
185	2
186	2
187	2
189	8
190	2
191	20
192	4
193	12
194	4
195	16
196	6
197	6
201	2
203	12
204	12
205	12
206	4
207	28
208	6
209	8
210	4
211	76
212	12
213	8
215	14
216	8
217	237
218	68
219	28
220	6
221	8
222	2
225	28
226	8
227	48
228	12
229	10
230	20
231	12
232	8
233	8
234	4
241	6
242	4
243	129
244	30
245	20
246	6
247	2
253	8
254	2
255	4
256	2
257	8
258	16
259	46
260	12
261	6
267	2
269	8
270	2
271	4
283	8
284	4
285	20
286	8
287	4
291	4
292	2
293	2
297	4
298	16
299	329
300	76
301	46
302	10
303	4
305	4
306	4
307	2
313	12
314	26
315	401
316	100
317	60
318	12
319	4
320	2
328	20
329	8
330	4
331	4
332	2
333	8
334	2
335	2
341	16
342	4
343	6
344	2
345	4
348	16
349	6
350	4
356	4
357	394
358	104
359	58
360	12
361	4
369	6
370	4
371	8
372	2
373	12
374	4
375	4
386	4
387	32
388	12
389	12
390	4
391	2
395	12
396	4
397	4
398	2
410	2
411	1
413	1
415	1
416	1
417	5
418	2
419	1
420	1
429	2
430	1
431	3
432	1
433	1
434	1
443	1
444	1
445	9
446	4
447	2
448	1
449	1
457	2
458	2
459	22
460	8
461	5
462	2
463	1
485	20
486	8
487	6
488	2
489	1
490	1
500	2
501	1
502	1
503	1
575	7
576	3
577	2
578	1
589	1
590	1
591	1
