Mass Spectrum: 1-Linolenoylglycerol, 2TMS derivative
Formula: C27H52O4Si2
CAS: 55521-22-7
Molecular weight: 496
m/z	intensity
29	11
39	17
41	131
42	13
43	53
44	8
45	35
53	28
54	32
55	195
56	13
57	20
58	7
59	36
61	9
65	30
66	31
67	301
68	47
69	141
70	9
71	16
72	24
73	999
74	83
75	168
76	15
77	94
78	52
79	382
80	146
81	169
82	29
83	35
84	13
85	11
88	5
89	23
91	155
92	39
93	196
94	65
95	209
96	22
97	24
98	18
99	10
101	92
102	11
103	412
104	44
105	119
106	40
107	104
108	211
109	79
111	11
113	9
115	24
116	61
117	141
118	21
119	92
120	25
121	130
122	34
123	33
129	922
130	121
131	180
132	63
133	203
134	40
135	91
136	27
143	11
145	42
146	25
147	585
148	100
149	97
150	21
151	8
159	26
160	8
161	42
162	16
163	22
164	10
171	14
173	23
175	33
176	8
177	10
187	22
189	25
190	7
191	18
201	37
203	182
204	54
205	140
206	32
217	76
218	37
219	68
220	14
221	17
232	11
237	34
238	8
243	9
247	7
257	10
259	13
260	32
261	38
262	13
277	25
297	6
303	44
304	7
335	12
336	5
337	30
338	10
350	14
351	7
363	6
364	5
377	5
393	378
394	118
395	27
396	7
405	4
406	75
407	28
409	7
422	3
423	5
425	4
481	106
482	45
483	16
484	3
496	17
497	8
