Mass Spectrum: D-Arabino-Hexose, 2-deoxy-3,4,5-tris-O-(trimethylsilyl)-, 6-[bis(trimethylsilyl) phosphate]
Formula: C21H53O8PSi5
CAS: 55520-84-8
Molecular weight: 604
m/z	intensity
53	3
54	3
55	12
58	3
59	27
61	7
67	5
69	18
71	3
72	18
73	999
74	77
75	89
76	5
77	3
81	6
83	7
85	6
87	3
89	5
99	10
101	48
102	8
103	56
104	6
105	3
111	8
113	45
114	6
115	19
116	24
117	25
118	4
119	7
127	9
128	6
129	127
130	21
131	26
132	5
133	71
134	10
135	15
137	3
139	3
141	4
142	6
143	17
145	17
146	3
147	223
148	36
149	23
150	4
151	6
153	5
154	20
155	40
156	13
157	18
158	4
159	5
161	5
163	3
166	5
167	19
168	3
169	8
173	3
175	5
177	4
180	3
181	9
182	335
183	112
184	26
185	9
189	23
190	5
191	44
192	9
193	12
195	15
196	5
197	7
203	7
204	313
205	73
206	32
207	27
208	6
209	6
211	112
212	19
213	13
215	7
217	134
218	38
219	17
220	3
221	6
225	26
226	13
227	100
228	20
229	36
230	35
231	28
232	8
233	20
234	4
240	3
241	7
243	124
244	26
245	18
246	8
247	8
253	13
254	5
255	62
256	20
257	91
258	21
259	16
260	3
269	30
270	8
271	11
272	64
273	25
274	10
275	3
282	4
283	15
284	11
285	51
286	13
287	7
291	5
297	7
299	465
300	114
301	65
302	13
303	4
305	9
306	3
313	19
314	37
315	595
316	152
317	136
318	30
319	29
320	6
327	4
328	36
329	13
330	7
334	22
335	11
336	4
341	10
342	5
343	4
357	238
358	69
359	36
360	8
369	21
370	92
371	32
372	15
373	19
374	6
375	4
386	6
387	28
388	10
389	36
390	11
391	6
396	3
409	6
424	8
425	6
459	6
471	5
473	3
499	6
589	78
590	38
591	21
592	6
