Mass Spectrum: O,O-Diphenyl N-cyclohexylphosphoramidothioate
Formula: C18H22NO2PS
CAS: 55526-79-9
Molecular weight: 347
m/z	intensity
41	779
42	55
43	182
44	28
45	14
46	113
47	46
49	27
50	15
51	349
53	134
54	28
55	999
56	133
57	11
63	465
65	388
66	74
67	60
68	5
69	38
70	14
72	37
73	12
74	23
75	15
76	8
77	750
78	39
79	48
80	9
81	179
82	35
83	137
84	31
85	15
86	25
88	11
90	5
91	19
92	33
93	23
94	638
95	135
96	72
98	709
99	33
102	15
104	78
105	44
106	9
108	6
109	384
110	121
111	34
112	11
115	17
116	9
117	2
118	19
121	2
122	9
124	22
125	22
126	20
127	9
128	16
130	14
131	2
132	2
134	10
135	2
137	9
138	21
139	9
140	98
141	19
142	7
144	41
149	9
151	5
152	42
153	54
155	364
156	159
157	32
158	38
160	27
165	8
168	15
171	87
172	288
173	30
174	24
175	14
181	13
182	17
183	5
184	28
185	8
186	8
188	25
190	18
199	15
215	10
217	741
218	76
220	127
221	5
222	58
223	4
231	7
237	56
238	342
239	29
247	9
249	77
250	2
251	3
252	8
254	52
255	2
264	35
265	22
266	34
278	15
304	31
305	2
314	850
315	165
316	20
346	12
347	511
348	101
349	32
