Mass Spectrum: D-Mannose, 2,3,4,5-tetrakis-O-(trimethylsilyl)-, 6-[bis(trimethylsilyl) phosphate]
Formula: C24H61O9PSi6
CAS: 55520-82-6
Molecular weight: 692
m/z	intensity
55	6
59	15
61	3
69	4
72	13
73	999
74	78
75	65
76	3
77	3
81	13
85	4
99	4
101	14
102	3
103	34
104	3
109	3
111	3
113	23
115	6
116	10
117	17
119	6
127	8
128	3
129	283
130	36
131	27
132	4
133	53
134	7
135	9
141	3
142	11
143	16
145	10
147	211
148	36
149	26
150	3
151	5
155	13
156	3
157	11
161	7
169	11
170	6
171	7
173	3
175	4
177	3
183	5
189	24
190	7
191	103
192	18
193	14
195	8
196	4
197	4
204	717
205	145
206	63
207	26
208	5
209	3
211	52
212	8
213	5
215	5
217	133
218	27
219	13
221	9
225	17
226	5
227	27
228	5
229	7
230	10
231	18
232	4
241	5
242	27
243	49
244	13
245	9
246	4
247	7
253	6
255	5
257	3
269	14
270	19
271	40
272	10
273	10
283	12
284	7
285	16
286	5
287	3
291	5
297	5
299	452
300	110
301	62
302	12
303	5
305	25
306	8
307	3
313	13
314	28
315	165
316	45
317	52
318	15
319	8
328	4
331	5
332	7
333	6
341	4
343	4
345	27
346	8
347	6
357	176
358	51
359	30
360	10
361	8
369	26
370	114
371	38
372	19
373	19
374	5
375	3
383	4
387	758
388	253
389	165
390	43
391	14
392	3
473	4
484	3
587	5
677	36
678	20
679	13
680	5
