Mass Spectrum: Hexopyranose, 5TMS derivative
Formula: C21H52O6Si5
CAS: 55521-15-8
Molecular weight: 540
m/z	intensity
38	2
39	43
40	13
41	78
42	42
43	107
44	54
45	153
46	12
47	59
48	2
49	9
50	7
51	15
52	9
53	20
54	9
55	75
56	34
57	51
58	45
59	64
60	13
61	22
62	2
63	6
65	5
66	14
67	24
68	13
69	52
70	20
71	32
72	37
73	999
74	87
75	319
76	26
77	78
78	15
79	23
80	4
81	37
82	12
83	24
84	11
85	29
86	7
87	9
88	5
89	23
91	14
92	6
93	12
94	6
95	19
96	11
97	15
98	9
99	16
100	7
101	37
102	8
103	160
104	17
105	21
106	2
107	7
108	5
109	15
110	11
111	16
112	3
113	13
114	3
115	22
116	38
117	83
118	14
119	23
120	3
121	8
125	4
127	14
128	6
129	185
130	32
131	44
132	20
133	108
134	19
135	19
138	3
139	5
140	2
141	15
142	14
143	33
144	9
145	29
146	9
147	400
148	68
149	79
150	10
151	22
152	7
153	7
154	6
155	26
156	9
157	32
158	3
159	20
160	3
161	13
163	15
165	4
167	7
168	9
169	45
170	13
171	17
172	5
173	12
174	3
175	28
176	6
177	23
178	5
179	4
181	5
183	14
184	5
185	4
186	2
187	6
189	110
190	30
191	382
192	76
193	43
194	8
195	3
196	4
197	3
199	10
200	2
201	7
202	11
203	75
204	866
205	210
206	94
207	54
208	14
209	8
211	2
213	2
215	13
216	6
217	380
218	114
219	62
220	15
221	68
222	17
223	16
224	2
225	2
227	8
228	2
229	16
231	54
232	16
233	23
234	9
235	5
241	2
242	7
243	71
244	24
245	28
246	18
247	20
248	4
249	11
251	2
255	7
257	14
258	6
259	12
260	8
261	7
263	9
264	2
265	31
266	11
267	9
269	2
271	54
272	15
273	37
274	10
275	8
276	2
277	7
278	18
279	12
280	6
281	7
288	2
289	16
290	3
291	61
292	20
293	17
294	2
295	3
303	8
304	7
305	55
306	21
307	17
308	5
317	38
318	15
319	51
320	16
321	21
322	4
323	2
331	16
332	17
333	19
334	4
335	8
345	41
346	17
347	19
348	7
349	5
357	6
359	3
361	239
362	75
363	55
364	15
365	10
367	2
377	2
379	10
380	4
391	3
393	19
394	7
395	2
396	6
405	4
406	2
407	9
408	2
433	4
434	1
435	112
436	48
437	28
438	9
439	3
446	23
447	9
451	15
452	6
453	17
454	7
455	3
497	2
509	3
525	85
526	45
527	26
528	8
