Mass Spectrum: D-Ribose, 2,3,4-tris-O-(trimethylsilyl)-, 5-[bis(trimethylsilyl) phosphate]
Formula: C20H51O8PSi5
CAS: 55520-86-0
Molecular weight: 590
m/z	intensity
41	12
43	15
44	15
45	63
47	10
55	7
59	25
61	7
67	7
68	10
69	10
72	20
73	999
74	86
75	96
77	7
81	10
97	7
99	10
101	20
103	30
113	12
115	10
116	10
117	20
119	10
127	10
129	76
130	10
131	22
133	71
134	10
135	17
140	25
141	15
142	20
143	45
144	10
145	30
147	230
148	38
149	38
150	7
151	7
156	12
157	12
158	10
169	131
170	22
171	15
177	12
184	15
189	10
191	45
192	10
193	15
195	15
196	7
204	20
205	10
207	20
211	83
212	15
213	10
215	147
216	30
217	116
218	25
219	12
225	25
226	7
227	55
228	15
229	25
230	243
231	60
232	25
240	7
241	7
243	43
244	10
245	7
258	20
259	25
260	7
269	10
285	30
286	10
298	15
299	258
300	63
301	38
302	7
305	10
313	10
314	25
315	507
316	126
317	73
318	15
328	53
329	15
330	7
343	22
344	7
356	10
357	10
369	10
371	25
372	7
373	10
387	12
389	12
485	6
575	28
576	15
577	9
