Mass Spectrum: Pentanedioic acid, 2-[(phenylmethoxy)imino]-, bis(trimethylsilyl) ester
Formula: C18H29NO5Si2
CAS: 55520-98-4
Molecular weight: 395
m/z	intensity
39	8
43	12
45	42
46	2
47	12
50	11
51	25
54	8
55	31
56	5
58	11
59	14
60	4
61	7
65	30
70	3
73	204
74	26
75	103
76	12
77	57
78	8
79	15
82	4
84	7
86	2
88	2
89	12
91	999
92	79
101	2
105	17
106	13
108	8
112	2
117	4
126	2
127	1
128	2
129	6
130	6
131	5
133	22
134	5
135	5
143	4
144	3
147	64
148	10
149	23
150	3
154	3
156	40
157	7
158	2
170	2
172	23
173	3
185	3
186	2
188	2
200	3
202	1
214	1
215	3
216	3
217	2
218	3
229	1
230	1
232	3
244	1
248	1
260	4
262	4
263	1
272	5
274	4
275	15
276	3
278	6
279	2
287	1
288	3
289	1
304	2
305	2
365	5
366	1
378	80
379	26
380	53
381	14
382	7
383	1
395	4
396	2
397	1
