Mass Spectrum: Butanoic acid, 3-methyl-2-[(phenylmethoxy)imino]-, trimethylsilyl ester
Formula: C15H23NO3Si
CAS: 55520-96-2
Molecular weight: 293
m/z	intensity
38	2
39	30
40	48
41	26
42	14
43	42
44	26
45	82
46	8
47	16
49	1
50	12
51	38
52	13
53	8
54	4
55	8
56	2
57	4
58	23
59	25
60	5
61	10
63	11
65	44
68	5
69	3
70	9
71	1
72	11
73	182
74	27
75	67
76	5
77	72
78	16
79	19
83	3
84	14
85	1
86	13
89	15
90	5
91	999
92	75
93	5
96	1
97	1
100	1
105	15
106	4
107	6
108	2
117	5
133	1
135	8
142	1
145	1
147	4
165	8
219	1
267	1
276	8
277	1
278	10
