Mass Spectrum: Heptanedioic acid, 4-(methoxyimino)-, bis(trimethylsilyl) ester
Formula: C14H29NO5Si2
CAS: 55520-92-8
Molecular weight: 347
m/z	intensity
40	109
41	7
42	17
43	64
44	56
45	185
46	4
47	85
53	11
54	51
55	285
56	45
57	12
58	63
59	95
60	21
61	70
70	2
72	44
73	999
74	101
75	644
76	54
77	65
78	3
80	61
81	11
82	81
84	18
85	19
86	39
87	15
89	166
90	16
91	36
96	5
100	3
103	79
104	4
105	3
108	150
109	18
110	51
111	19
112	74
115	14
116	10
117	7
119	43
126	19
128	4
129	130
130	59
131	32
132	3
133	20
135	3
136	46
137	10
139	38
140	568
141	58
142	2
143	14
144	11
145	38
146	6
147	184
148	42
149	23
152	3
154	27
156	104
157	18
161	4
168	4
170	42
177	26
182	70
183	11
184	28
186	6
190	5
198	69
199	23
200	8
226	62
228	7
230	149
231	23
232	3
242	6
257	85
258	20
301	2
316	61
317	17
332	139
333	32
334	11
347	58
348	12
