Mass Spectrum: .alpha.-D-Glucopyranose, 2,3,4,6-tetrakis-O-(trimethylsilyl)-, bis(trimethylsilyl) phosphate
Formula: C24H61O9PSi6
CAS: 55520-79-1
Molecular weight: 692
m/z	intensity
41	38
42	14
43	43
44	24
45	86
46	14
47	29
52	5
53	12
54	7
55	17
56	7
57	10
58	10
59	52
60	7
61	17
65	5
66	10
67	10
68	48
69	14
70	7
71	7
72	24
73	999
74	110
75	257
76	21
77	19
78	2
79	5
81	19
83	5
84	2
85	10
87	7
88	5
89	21
90	2
91	5
93	14
95	7
96	5
97	5
98	7
99	10
100	7
101	24
102	5
103	81
104	14
105	7
107	2
109	7
111	5
113	12
114	2
115	14
116	14
117	81
118	7
119	17
121	7
125	5
127	7
128	7
129	114
130	19
131	40
132	10
133	119
134	12
135	24
136	5
137	7
139	5
140	10
141	10
142	10
143	29
144	5
145	17
146	2
147	448
148	62
149	57
150	7
151	7
152	2
153	2
154	2
155	21
156	7
157	19
158	2
159	10
161	10
163	7
165	2
167	7
169	38
170	10
171	7
172	2
173	5
174	2
175	12
176	5
177	14
178	2
179	5
180	2
181	7
182	7
183	14
184	2
185	7
189	33
190	12
191	86
192	24
193	24
195	12
196	5
197	5
198	5
199	2
201	5
203	33
204	314
205	95
206	43
207	14
208	5
211	60
212	7
213	5
215	7
216	7
217	386
218	95
219	57
220	10
221	24
222	10
223	5
225	24
226	2
227	21
228	7
229	12
230	14
231	19
232	26
233	29
234	5
235	2
239	29
240	5
241	10
242	17
243	71
244	19
245	19
246	7
247	7
248	2
249	2
253	2
254	5
255	12
256	5
257	24
258	10
259	7
260	5
261	2
265	2
267	5
269	10
270	29
271	57
272	21
273	24
274	5
275	5
283	21
284	19
285	24
286	7
287	5
288	5
291	10
292	5
293	2
297	5
298	19
299	476
300	95
301	71
302	14
303	5
304	5
305	21
306	10
307	7
308	2
313	19
314	81
315	202
316	81
317	43
318	12
319	24
320	7
321	2
327	5
328	19
329	5
330	5
331	12
332	14
333	17
334	10
335	2
341	10
342	19
343	100
344	24
345	29
346	10
347	7
349	5
355	7
356	14
357	24
358	10
359	7
360	7
361	86
362	19
363	12
364	2
369	7
370	2
371	2
372	2
373	17
374	5
375	2
385	12
386	5
387	76
388	31
389	33
390	10
391	7
393	2
409	5
410	1
415	3
416	2
417	2
423	4
424	3
425	1
429	9
430	7
431	7
432	2
433	3
434	1
435	10
436	4
437	4
438	1
442	3
443	2
444	1
445	2
447	1
448	1
450	25
451	16
452	6
453	3
457	2
497	2
498	1
503	2
504	1
505	1
512	11
513	6
514	3
515	2
517	1
518	3
519	1
587	10
588	3
589	2
677	3
678	2
679	1
680	1
