Mass Spectrum: Octanoic acid, 2-[(phenylmethoxy)imino]-, trimethylsilyl ester
Formula: C18H29NO3Si
CAS: 55520-99-5
Molecular weight: 335
m/z	intensity
38	1
39	21
40	34
41	46
42	6
43	37
44	17
45	42
47	11
50	9
51	26
52	9
53	6
54	9
55	15
56	1
57	4
58	14
59	15
61	8
63	2
65	34
68	3
69	9
72	7
73	166
74	23
75	65
76	8
77	65
78	14
79	20
80	2
81	1
82	11
83	14
84	12
89	11
90	6
91	999
92	70
93	8
95	2
105	16
106	4
107	4
108	4
117	1
135	8
159	10
165	10
172	1
212	1
218	32
219	3
228	13
229	3
248	14
249	1
261	2
265	47
266	10
305	3
318	15
319	1
320	29
321	6
