Mass Spectrum: Pentanoic acid, 2-[(phenylmethoxy)imino]-, trimethylsilyl ester
Formula: C15H23NO3Si
CAS: 55520-94-0
Molecular weight: 293
m/z	intensity
27	9
29	9
30	1
31	2
39	15
41	10
42	3
43	19
44	7
45	43
46	4
47	8
50	10
51	24
52	8
53	3
54	2
55	3
56	3
57	4
58	12
59	15
60	3
61	6
62	3
63	7
64	3
65	38
66	3
68	1
70	5
71	1
73	119
74	19
75	46
76	7
77	63
78	12
79	10
83	2
84	9
85	2
86	6
87	1
89	9
91	999
92	79
93	4
97	1
98	2
99	2
101	2
102	2
105	14
106	6
107	6
108	3
110	1
112	2
115	2
117	1
126	2
128	2
135	2
142	3
144	1
145	4
149	2
157	1
158	1
159	5
160	1
161	1
170	3
171	1
172	2
173	1
176	1
186	2
187	1
188	1
202	1
219	13
220	2
248	2
263	2
264	1
265	13
266	4
276	58
277	14
278	22
279	4
280	1
293	1
