Mass Spectrum: Urea, N-(4-hydroxy-3-methylcyclohexyl)-N'-phenyl-
Formula: C14H20N2O2
CAS: 55521-13-6
Molecular weight: 248
m/z	intensity
14	26
27	62
29	124
30	46
31	33
38	70
39	33
40	129
41	51
42	181
54	129
55	98
56	166
57	70
65	44
66	62
77	77
92	93
93	999
94	155
119	72
135	51
248	70
