Mass Spectrum: Pentanoic acid, 1,3,3-trimethylbicyclo[2.2.1]hept-2-yl ester
Formula: C15H26O2
CAS: 55538-61-9
Molecular weight: 238
m/z	intensity
27	149
29	237
39	147
40	27
41	463
42	47
43	326
44	48
45	25
51	27
52	14
53	96
54	22
55	192
56	62
57	438
58	38
59	23
60	16
65	23
66	18
67	133
68	36
69	208
70	66
71	129
72	115
73	22
77	96
78	16
79	110
80	460
81	999
82	118
83	71
84	74
85	477
86	41
91	63
92	47
93	195
94	41
95	99
96	25
97	27
98	19
99	20
103	41
105	27
107	104
108	33
109	85
110	19
111	49
115	11
117	14
119	38
121	140
122	19
123	33
124	16
125	25
128	44
132	11
134	10
135	56
136	343
137	82
152	27
153	99
154	44
156	22
238	19
