Mass Spectrum: d-Galactose, 2,3,4,5-tetrakis-O-(trimethylsilyl)-, O-methyloxime, 6-[bis(trimethylsilyl) phosphate]
Formula: C25H64NO9PSi6
CAS: 55530-75-1
Molecular weight: 721
m/z	intensity
41	6
42	6
43	21
44	15
45	94
46	6
47	9
53	3
54	6
55	9
56	3
57	12
58	9
59	59
60	6
61	12
68	6
69	9
70	6
71	6
72	24
73	999
74	112
75	129
76	9
77	12
79	3
81	3
82	12
83	6
84	6
85	18
86	6
87	6
88	3
89	44
90	3
91	6
93	6
95	3
96	3
97	3
99	12
100	12
101	47
102	12
103	82
104	12
105	21
106	3
107	3
111	3
112	6
113	9
114	15
115	18
116	26
117	35
118	6
119	15
121	9
126	3
127	6
128	9
129	141
130	35
131	141
132	18
133	118
134	15
135	24
137	6
138	6
141	6
142	9
143	15
144	3
145	12
146	6
147	241
148	32
149	35
150	6
151	9
155	6
156	6
157	100
158	18
159	12
160	94
161	32
162	9
163	9
165	3
167	3
168	3
169	6
170	3
171	6
172	3
173	9
174	9
175	6
177	6
179	6
186	21
187	6
189	29
190	12
191	44
192	12
193	24
194	6
195	12
196	6
197	6
203	9
204	26
205	29
206	6
207	41
208	12
209	6
210	3
211	59
212	12
213	9
214	3
215	6
216	12
217	124
218	38
219	18
220	3
221	12
225	21
226	6
227	24
228	12
229	15
230	12
231	18
232	9
233	6
234	3
243	24
244	12
245	6
246	9
247	235
248	47
249	24
250	3
253	6
255	6
256	6
259	6
260	9
262	6
267	3
268	6
269	15
270	6
271	6
272	3
274	9
275	6
276	3
283	35
284	6
285	18
286	15
287	6
291	6
298	18
299	588
300	200
301	112
302	21
303	9
304	3
305	6
307	9
313	12
314	129
315	235
316	59
317	29
318	12
319	15
320	3
328	9
331	21
332	6
333	6
341	9
342	3
343	3
357	176
358	38
359	26
360	9
364	6
369	6
370	6
371	3
373	9
374	6
375	3
376	9
387	341
388	100
389	82
390	24
391	6
392	9
393	3
399	3
403	3
407	38
439	3
443	6
444	3
459	9
460	3
461	6
471	44
472	21
473	15
474	3
561	13
562	6
563	4
564	1
565	1
706	5
707	4
708	2
709	1
