Mass Spectrum: Dibenzyl 2,6-dimethyl-3,5-pyridinedicarboxylate
Formula: C23H21NO4
CAS: 55536-72-6
Molecular weight: 375
m/z	intensity
34	12
36	7
38	22
39	82
40	180
41	40
42	21
43	27
44	70
45	4
50	21
51	44
52	19
53	10
54	5
55	13
56	8
57	11
58	2
60	2
62	13
63	57
64	39
65	143
66	10
67	6
68	3
69	6
70	5
71	6
73	3
74	3
75	3
77	58
78	18
79	37
80	4
81	4
83	9
84	3
85	3
87	2
89	45
91	999
92	73
94	4
95	2
96	2
97	3
98	1
103	2
104	10
105	27
106	10
107	16
108	4
112	2
115	2
116	1
118	1
119	2
120	1
128	1
132	4
133	11
134	5
135	2
136	3
149	9
150	7
151	2
152	2
153	2
160	2
162	3
164	2
165	2
167	3
171	2
178	77
179	8
180	3
181	4
183	2
194	3
195	3
196	4
197	8
207	4
214	4
215	3
224	2
239	1
240	16
241	8
265	4
266	7
268	154
269	23
270	2
284	11
285	2
298	4
330	17
331	3
374	5
375	37
376	7
