Mass Spectrum: Propanedioic acid, (trimethylsilyl)[(trimethylsilyl)oxy]-, bis(trimethylsilyl) ester
Formula: C15H36O5Si4
CAS: 55530-65-9
Molecular weight: 408
m/z	intensity
15	15
18	45
28	36
43	23
44	32
45	173
46	13
47	12
55	23
58	12
59	32
72	31
73	999
74	88
75	66
117	10
131	35
133	38
147	468
148	75
149	42
157	16
175	14
190	80
191	20
207	36
221	95
222	24
223	14
231	63
232	14
305	13
393	234
394	87
396	14
408	44
410	10
