Mass Spectrum: 3.beta.-Lanosta-9(11),24-dien-3-ol, TMS derivative
Formula: C33H58OSi
CAS: 55538-95-9
Molecular weight: 498
m/z	intensity
53	40
55	390
56	30
57	90
59	20
61	20
67	150
68	20
69	999
70	60
71	30
73	60
74	50
75	420
76	30
77	50
78	20
79	110
81	260
82	50
83	140
91	130
92	20
93	170
94	110
95	370
96	40
97	60
103	20
105	180
106	40
107	180
108	40
109	310
110	30
111	40
117	80
118	20
119	200
120	50
121	190
122	40
123	140
129	250
130	40
131	120
132	40
133	140
134	50
135	170
136	50
137	70
143	60
144	30
145	140
146	50
147	120
148	30
149	110
150	20
151	20
157	70
158	30
159	140
160	40
161	100
162	20
163	50
171	50
172	20
173	170
174	40
175	140
176	30
177	30
183	20
185	30
187	90
188	30
189	100
190	20
191	40
197	30
199	50
201	60
202	30
203	60
205	30
211	20
213	50
214	20
215	70
217	30
227	50
229	40
231	20
241	70
242	20
243	30
255	50
257	40
271	40
286	20
287	20
295	60
297	20
299	40
311	40
326	40
367	20
369	70
370	20
385	120
386	40
393	480
394	160
395	30
408	20
416	20
483	130
484	50
498	80
499	30
