Mass Spectrum: Benzenemethanamine, N,4-dimethyl-N-[(4-methylphenyl)methyl]-
Formula: C17H21N
CAS: 55538-74-4
Molecular weight: 239
m/z	intensity
15	25
16	14
26	7
27	52
28	2
29	1
30	4
31	3
36	4
37	2
38	8
39	57
41	26
42	129
43	15
44	117
45	2
49	0
50	17
51	42
52	15
53	20
54	3
55	3
56	0
57	2
58	9
61	1
62	7
63	25
64	7
65	42
66	5
67	3
70	6
74	4
75	6
76	5
77	96
78	31
79	66
80	4
85	9
87	3
88	2
89	31
90	20
91	194
92	28
93	6
94	0
101	6
102	13
103	70
104	48
105	999
106	219
107	14
113	1
115	2
116	24
117	27
118	26
119	27
120	16
121	0
130	4
131	29
132	172
133	84
134	209
135	23
146	43
147	8
148	174
149	22
165	2
171	6
172	4
178	2
179	2
181	2
193	3
195	1
208	1
224	2
235	6
236	2
238	72
239	246
240	44
241	2
