Mass Spectrum: .beta.-D-Fructofuranose, 2,3,4,6-tetrakis-O-(trimethylsilyl)-, bis(trimethylsilyl) phosphate
Formula: C24H61O9PSi6
CAS: 55538-90-4
Molecular weight: 692
m/z	intensity
41	39
42	6
43	28
44	17
45	78
46	3
47	11
48	3
49	3
51	3
52	3
53	8
54	3
55	11
56	3
57	6
58	8
59	45
60	6
61	11
63	3
65	3
66	6
67	11
68	25
69	17
70	3
71	6
72	17
73	999
74	101
75	218
76	17
77	20
78	3
79	6
81	11
82	3
83	6
84	3
85	6
86	3
87	6
88	3
89	14
90	3
91	6
92	3
93	8
94	3
95	6
97	6
98	6
99	8
100	6
101	22
102	8
103	89
104	11
105	11
107	3
109	8
110	3
111	6
113	8
114	3
115	14
116	11
117	50
118	8
119	11
120	3
121	6
123	6
124	3
125	8
126	3
127	8
128	6
129	112
130	17
131	31
132	11
133	56
134	14
135	17
136	3
137	6
139	3
140	6
141	14
142	11
143	31
144	6
145	14
146	6
147	246
148	47
149	42
150	6
151	8
152	3
153	6
154	3
155	8
156	6
157	11
158	6
159	8
161	6
163	6
165	3
167	3
169	20
170	6
171	8
173	6
174	3
175	6
177	11
179	3
181	6
182	3
183	11
184	3
185	6
186	3
187	6
189	20
190	6
191	28
192	8
193	11
194	3
195	8
196	3
197	6
199	3
201	6
202	3
203	8
204	95
205	56
206	14
209	3
210	6
211	31
212	6
213	6
215	25
216	11
217	558
218	140
219	67
220	11
221	14
222	6
223	6
225	28
226	6
227	14
228	6
229	14
230	34
231	25
232	11
233	6
234	3
235	3
237	3
239	28
240	8
241	6
242	3
243	20
244	6
245	8
246	22
247	8
248	3
249	3
251	3
255	8
256	3
257	20
258	8
259	6
260	3
269	8
270	6
271	25
272	8
273	6
274	3
277	6
278	3
283	17
284	8
285	17
286	6
287	3
288	3
291	6
292	3
297	3
298	17
299	302
300	84
301	45
302	8
303	17
304	6
305	11
306	6
307	14
308	6
313	8
314	31
315	67
316	22
317	14
318	20
319	14
320	6
321	3
327	8
328	168
329	42
330	25
331	8
332	3
333	3
341	3
343	6
345	17
346	6
347	8
348	3
349	3
357	28
358	8
359	11
360	8
361	25
362	8
363	3
369	3
371	3
372	8
373	56
374	17
375	11
376	3
385	3
386	3
387	17
388	8
389	17
390	6
391	3
399	3
401	3
402	3
403	3
409	6
415	3
423	3
431	3
433	3
435	8
436	6
437	36
438	17
439	8
440	6
443	34
444	61
445	430
446	173
447	95
448	28
449	8
450	6
451	3
457	3
458	4
459	2
460	1
461	3
462	2
463	1
471	1
472	1
473	1
474	1
488	1
489	1
491	1
497	2
498	1
499	3
500	2
501	1
502	1
503	2
504	1
505	1
506	1
507	2
518	1
519	5
520	2
521	1
522	1
533	1
534	1
579	1
580	1
581	1
587	4
588	2
589	4
590	2
591	1
602	2
603	4
604	3
605	1
606	1
677	24
678	15
679	9
680	4
681	1
692	1
693	1
694	1
