Mass Spectrum: d-Glucose, 2,3,4,5-tetrakis-O-(trimethylsilyl)-, o-methyloxime, 6-[bis(trimethylsilyl) phosphate]
Formula: C25H64NO9PSi6
CAS: 55530-73-9
Molecular weight: 721
m/z	intensity
41	8
42	3
43	10
44	10
45	42
46	3
47	10
53	5
54	3
55	10
56	3
57	5
58	5
59	31
60	5
61	5
67	5
68	3
69	8
70	3
71	5
72	16
73	999
74	94
75	105
76	5
77	13
81	3
82	5
84	5
85	5
86	5
87	3
89	31
90	5
91	3
93	5
98	3
99	8
100	13
101	45
102	13
103	42
104	5
105	21
106	3
111	3
112	3
113	10
114	10
115	10
116	31
117	21
118	5
119	8
121	3
127	8
128	5
129	110
130	18
131	37
132	8
133	84
134	10
135	13
137	3
138	5
141	5
142	5
143	18
144	5
145	13
146	5
147	225
148	42
149	26
150	5
151	8
152	3
153	3
154	3
155	5
156	5
157	94
158	21
159	10
160	220
161	31
162	13
163	8
168	5
169	8
170	5
171	3
172	5
173	10
174	5
175	8
181	5
186	10
187	5
189	13
190	8
191	24
192	5
193	13
194	3
195	10
196	5
197	3
201	3
203	8
204	47
205	18
206	8
207	31
208	5
209	8
210	5
211	60
212	18
213	8
214	5
215	10
216	13
217	162
218	31
219	16
220	3
221	8
225	26
226	8
227	31
228	24
229	21
230	16
231	26
232	8
233	5
234	3
241	5
242	5
243	26
244	13
245	8
246	8
247	26
248	5
249	3
253	8
255	3
256	5
259	8
260	5
261	3
262	10
268	5
269	16
270	10
271	5
272	3
274	16
275	8
276	5
283	13
284	5
285	29
286	10
287	5
291	10
292	3
299	419
300	99
301	63
302	16
303	5
304	3
305	10
306	3
307	3
313	16
314	42
315	220
316	73
317	39
318	10
319	16
320	5
321	3
328	16
329	5
331	89
332	24
333	13
334	5
341	16
342	5
343	8
344	3
357	215
358	79
359	34
360	8
361	5
364	21
365	8
366	5
369	8
370	10
371	8
372	3
373	21
374	10
375	5
376	5
387	523
388	225
389	126
390	31
391	13
392	3
403	13
404	5
405	3
407	3
415	3
429	3
443	8
444	5
445	3
448	3
459	13
460	5
461	5
462	3
471	147
472	47
473	29
474	10
475	5
476	3
480	3
489	3
490	1
561	5
562	3
563	1
564	1
634	1
674	1
675	1
706	14
707	9
708	6
709	2
710	1
711	1
