Mass Spectrum: D-Fructose, 1,3,4,5-tetrakis-O-(trimethylsilyl)-, 6-[bis(trimethylsilyl) phosphate]
Formula: C24H61O9PSi6
CAS: 55530-83-1
Molecular weight: 692
m/z	intensity
41	10
43	14
44	12
45	46
47	8
55	8
58	6
59	25
67	6
68	6
69	8
72	16
73	999
74	86
75	84
76	6
77	8
81	6
85	6
88	6
89	8
99	6
101	12
102	6
103	44
104	6
113	14
115	8
116	6
117	16
119	6
127	10
129	82
130	12
131	23
133	57
134	8
135	12
140	12
141	10
142	12
143	31
144	6
145	16
147	237
148	42
149	38
150	6
151	6
155	8
156	8
157	21
158	6
169	12
177	8
183	6
189	8
191	25
192	6
193	8
195	8
196	10
203	6
204	16
205	12
207	23
208	6
209	6
211	59
212	10
213	8
215	67
216	16
217	67
218	14
219	10
221	8
225	19
226	6
227	52
228	12
229	21
230	152
231	48
232	16
243	19
247	8
253	6
255	8
257	36
258	10
259	6
269	14
270	12
271	61
272	16
273	12
275	10
285	25
286	8
287	6
298	12
299	237
300	59
301	38
302	6
305	12
306	6
313	12
314	29
315	423
316	108
317	63
318	12
319	8
328	16
329	6
331	6
341	6
343	19
344	8
345	23
346	8
347	10
356	8
357	10
361	12
369	12
370	6
371	6
373	12
386	8
387	69
388	25
389	25
390	6
501	9
589	216
590	110
591	65
592	21
593	7
677	21
678	11
679	7
