Mass Spectrum: .alpha.-D-Galactopyranose, 2,3,4,6-tetrakis-O-(trimethylsilyl)-, bis(trimethylsilyl) phosphate
Formula: C24H61O9PSi6
CAS: 55530-81-9
Molecular weight: 692
m/z	intensity
41	31
42	8
43	23
44	23
45	100
46	4
47	23
53	12
54	8
55	19
56	8
57	12
58	12
59	38
60	8
61	15
65	4
66	4
67	12
68	23
69	15
70	8
71	12
72	23
73	999
74	119
75	146
76	19
77	15
81	19
84	4
85	12
87	4
88	4
89	15
91	4
93	15
95	8
97	4
98	8
99	12
100	8
101	27
102	8
103	85
104	15
105	12
107	4
109	8
111	8
113	15
115	19
116	23
117	65
118	12
119	19
121	4
125	8
127	12
128	4
129	162
130	23
131	54
132	15
133	115
134	15
135	23
136	4
137	4
140	8
141	8
142	15
143	38
144	8
145	23
146	8
147	354
148	65
149	46
150	12
151	8
152	4
153	8
155	31
156	8
157	46
158	12
159	12
161	15
162	8
163	12
165	8
167	8
169	35
170	15
171	8
173	8
174	4
175	15
177	15
178	4
179	4
181	8
183	15
189	31
190	15
191	138
192	27
193	38
194	8
195	12
196	8
197	4
198	4
199	4
201	12
202	8
203	31
204	492
205	104
206	58
207	50
208	12
209	12
211	62
212	15
213	8
215	15
216	8
217	538
218	108
219	54
220	15
221	19
222	8
223	4
225	31
226	8
227	23
228	8
229	15
230	19
231	31
232	31
233	31
234	15
235	4
239	8
241	8
242	12
243	62
244	19
245	23
246	8
247	8
255	8
256	8
257	38
258	15
259	15
265	8
267	4
268	8
269	12
270	62
271	62
272	15
273	23
274	4
275	8
283	23
284	15
285	38
286	8
287	8
288	8
291	15
298	31
299	768
300	135
301	77
302	23
303	12
305	38
306	15
307	8
313	23
314	115
315	285
316	92
317	77
318	23
319	38
320	12
321	8
328	15
329	8
331	15
332	23
333	12
334	8
335	4
341	15
342	8
343	77
344	23
345	23
346	8
347	12
355	8
356	15
357	23
358	12
359	12
360	15
361	62
362	19
363	8
364	4
369	12
370	15
371	8
372	4
373	19
374	8
375	4
385	8
386	15
387	69
388	38
389	46
390	8
391	8
392	4
429	10
430	6
431	8
432	2
433	2
435	8
436	5
437	4
442	6
443	5
444	2
445	2
446	1
447	2
450	14
451	9
452	5
453	2
457	3
458	2
459	2
460	1
461	2
462	1
469	2
470	2
471	2
472	1
473	1
503	2
512	2
513	2
515	1
518	3
587	9
588	3
589	3
590	2
602	1
677	6
678	4
679	2
680	1
