Mass Spectrum: 1,3,2-Dioxaborolan-4-one, 2,5-diphenyl-
Formula: C14H11BO3
CAS: 55538-80-2
Molecular weight: 238
m/z	intensity
40	20
41	35
42	20
43	50
44	45
45	5
49	5
50	60
51	170
52	55
53	35
54	5
55	45
56	15
57	50
58	5
59	10
61	10
62	20
63	75
64	35
65	10
66	5
67	10
68	5
69	35
70	15
71	30
72	10
73	55
74	15
75	10
76	25
77	230
78	85
79	20
81	25
82	20
83	40
84	10
85	20
86	5
87	5
88	20
89	310
90	999
91	90
92	5
93	5
94	5
95	30
96	45
97	75
98	5
99	5
102	5
103	20
104	55
105	220
106	35
107	10
109	15
110	10
111	20
112	7
113	7
115	10
116	5
117	10
118	10
119	5
123	15
125	10
133	15
135	10
137	7
139	10
141	15
145	5
147	7
149	65
150	5
151	5
152	5
153	5
163	15
164	5
165	35
166	35
167	15
168	5
169	5
175	5
176	20
177	5
178	5
179	7
191	15
192	80
193	385
194	615
195	95
196	10
197	5
207	5
208	4
209	20
210	3
237	15
238	50
239	7
