Mass Spectrum: 9-Tetradecynoic acid, methyl ester
Formula: C15H26O2
CAS: 55538-60-8
Molecular weight: 238
m/z	intensity
14	13
15	78
16	8
17	39
18	97
26	8
27	90
28	182
29	84
31	20
32	65
38	8
39	110
40	39
41	376
42	58
43	182
44	20
45	48
48	9
49	4
50	8
51	26
52	58
53	130
54	545
55	493
56	52
57	52
58	45
59	149
60	3
61	4
62	7
63	13
64	8
65	70
66	58
67	734
68	390
69	221
70	29
71	13
72	13
73	39
74	188
75	29
77	110
78	52
79	242
80	165
81	999
82	286
83	169
84	26
85	71
86	20
87	84
88	13
89	7
90	7
91	84
92	36
93	234
94	108
95	357
96	975
97	136
98	26
99	26
100	15
101	29
102	3
103	9
104	12
105	51
106	26
107	166
108	78
109	146
110	361
111	104
112	20
113	13
114	8
115	26
116	9
117	13
118	16
119	20
120	34
121	182
122	136
123	82
124	29
125	39
126	20
127	26
128	20
129	45
130	8
131	32
132	13
133	27
134	3
135	124
136	65
137	26
138	26
139	20
140	26
141	39
142	13
143	52
144	12
145	32
146	7
149	84
150	47
151	13
153	20
154	22
155	13
156	13
157	26
159	13
162	13
163	39
164	104
165	34
167	22
168	22
169	20
177	8
178	15
179	7
180	97
181	13
182	7
183	9
184	4
185	8
187	9
189	32
190	4
191	17
192	7
193	3
194	4
195	15
196	26
197	13
199	3
201	5
203	7
204	4
206	52
207	26
210	12
211	7
222	7
223	7
225	3
226	5
227	4
229	5
230	5
233	4
238	16
