Mass Spectrum: 1-(2-Hydroperfluoroisobutyl)-3,3-dimethyldiaziridine
Formula: C7H8F8N2
CAS: 55542-42-2
Molecular weight: 272
m/z	intensity
27	150
28	820
29	140
30	40
31	20
32	90
33	140
39	580
40	900
41	999
42	250
43	350
44	30
45	20
46	50
54	400
55	680
56	560
57	60
58	120
59	110
60	640
61	840
62	40
69	450
70	19
93	60
101	230
105	430
106	30
113	80
114	20
122	30
123	140
124	30
143	100
146	50
153	150
154	7
172	120
173	320
174	20
193	80
194	6
212	320
213	80
214	8
237	999
238	90
239	9
252	680
253	100
254	9
