Mass Spectrum: Pyrrolidine, 2,5-dimethyl-1-nitroso-
Formula: C6H12N2O
CAS: 55556-86-0
Molecular weight: 128
m/z	intensity
30	187
38	31
39	331
40	81
41	624
42	999
43	106
44	124
53	93
54	118
55	624
56	374
57	137
67	56
68	181
69	124
70	249
72	31
79	49
81	99
82	281
83	187
84	31
97	37
98	37
99	49
113	112
128	624
129	49
