Mass Spectrum: 5.beta.-Pregnan-3.alpha.-ol-20-one, O-methyloxime, TMS derivative
Formula: C25H45NO2Si
CAS: 55557-04-5
Molecular weight: 419
m/z	intensity
58	15
70	272
71	33
74	54
75	62
81	27
83	37
84	21
87	495
88	111
93	21
94	35
95	35
96	16
100	999
101	70
105	19
106	21
107	41
108	23
109	18
113	74
114	35
115	23
117	16
119	21
121	24
122	15
126	18
131	24
133	24
134	26
135	26
145	23
146	23
147	50
148	31
149	27
159	22
160	33
161	33
162	23
163	16
173	38
174	23
175	17
185	20
187	21
188	21
199	30
201	38
202	30
213	20
215	56
216	23
225	19
227	23
228	15
230	85
231	20
241	126
242	76
243	104
244	35
255	24
256	128
257	40
258	16
268	16
274	21
281	46
282	38
283	49
297	16
298	282
299	65
314	30
328	24
329	18
332	26
333	16
346	32
347	15
358	47
359	21
360	15
372	26
374	30
386	16
387	38
388	533
389	191
390	60
391	17
404	61
405	26
419	97
420	37
