Mass Spectrum: Diglycolic acid, 2TMS derivative
Formula: C10H22O5Si2
CAS: 55557-25-0
Molecular weight: 278
m/z	intensity
14	1
15	5
16	1
26	1
27	3
29	18
30	3
31	5
41	1
42	16
43	137
44	40
45	145
46	11
47	39
48	2
49	1
51	3
52	3
53	3
54	1
55	9
56	3
57	13
58	43
59	57
60	10
61	26
62	2
63	1
66	47
68	1
69	1
70	6
71	7
72	121
73	999
74	100
75	320
76	21
77	21
81	31
82	2
85	2
86	1
87	4
88	19
89	9
90	2
91	2
92	1
93	1
95	10
96	3
99	1
100	1
101	39
102	7
103	95
104	10
105	7
113	1
114	1
115	8
116	49
117	213
118	23
119	13
121	1
124	7
125	1
129	1
130	2
131	40
132	62
133	68
134	13
135	6
144	1
145	4
147	884
148	135
149	100
150	11
151	4
152	1
159	1
161	15
162	15
163	6
164	1
175	1
177	166
178	30
179	13
180	1
188	2
189	28
190	6
191	3
204	152
205	59
206	20
207	5
219	14
220	3
221	1
235	1
263	42
264	9
265	4
266	1
