Mass Spectrum: 4-[4-Methoxyphenyl]-2,4-dioxobutyric acid
Formula: C11H10O5
CAS: 55558-77-5
Molecular weight: 222
m/z	intensity
41	43
42	58
43	36
44	23
45	223
46	4
49	7
50	95
51	133
52	47
53	54
54	4
55	13
59	5
61	14
62	60
63	208
64	142
65	80
66	27
67	9
69	999
70	28
71	10
73	4
74	41
75	41
76	55
77	418
78	129
79	55
80	5
81	8
84	1
85	1
86	5
87	7
89	127
90	30
91	54
92	193
93	51
94	115
95	9
98	1
101	4
102	6
103	12
104	7
105	34
106	22
107	71
109	295
110	18
115	6
116	3
117	19
118	16
119	6
120	6
121	20
122	0
126	0
132	16
133	20
134	26
135	518
136	40
137	3
146	2
147	9
148	2
149	3
150	60
151	10
161	1
162	10
163	4
177	923
178	95
179	8
221	2
222	207
223	35
224	3
