Mass Spectrum: Piperazine, 2-methyl-1,4-dinitroso-
Formula: C5H10N4O2
CAS: 55556-94-0
Molecular weight: 158
m/z	intensity
30	199
35	14
38	11
39	84
40	40
41	204
42	522
43	113
44	63
47	61
49	256
51	90
54	102
55	97
56	999
57	190
68	30
69	259
70	61
71	188
72	10
83	22
84	118
86	74
88	10
97	17
98	529
99	32
128	106
129	7
158	84
159	6
