Mass Spectrum: 1,5-Diazocine, octahydro-1,5-dinitroso-
Formula: C6H12N4O2
CAS: 55556-89-3
Molecular weight: 172
m/z	intensity
30	887
31	56
37	22
38	44
39	258
40	101
41	662
42	651
43	202
44	471
45	33
50	33
51	44
52	56
53	56
54	224
55	528
56	505
57	190
58	22
59	11
60	11
65	11
66	11
67	44
68	101
69	123
70	146
71	44
72	22
73	22
78	22
79	33
80	33
81	33
82	112
83	550
84	999
85	78
86	11
95	11
96	11
97	22
98	11
99	22
100	11
109	22
110	11
111	67
112	752
113	112
114	33
128	11
142	11
172	44
173	11
