Mass Spectrum: .alpha.-D-Glucopyranosiduronic acid, 3-(5-ethylhexahydro-2,4,6-trioxo-5-pyrimidinyl)-1,1-dimethylpropyl 2,3,4-tris-O-(trimethylsilyl)-, methyl ester
Formula: C27H52N2O10Si3
CAS: 55556-81-5
Molecular weight: 648
m/z	intensity
40	18
41	85
42	40
43	80
44	56
45	122
46	16
47	42
48	8
49	10
50	16
51	21
52	21
53	24
54	16
55	82
56	26
57	29
58	37
59	72
60	16
61	21
62	5
63	16
64	8
65	16
66	18
67	42
68	26
69	122
70	24
71	32
72	26
73	999
74	88
75	355
76	32
77	34
78	16
79	26
80	13
81	42
82	21
83	34
84	21
85	26
86	10
87	16
88	10
89	80
90	16
91	26
92	10
93	53
94	13
95	34
96	16
97	29
98	16
99	32
100	16
101	29
102	13
103	61
104	16
105	29
106	5
107	18
108	16
109	21
110	13
111	21
112	21
113	18
114	10
115	21
116	42
117	53
118	16
119	21
120	8
121	18
122	5
123	18
124	5
125	8
126	21
127	21
128	18
129	74
130	37
131	45
132	26
133	66
134	16
135	21
136	10
137	13
138	10
139	13
140	10
141	16
142	16
143	77
144	21
145	26
146	37
147	216
148	37
149	34
150	8
151	10
152	8
153	10
154	5
155	18
156	21
157	26
158	13
159	106
160	21
161	26
162	10
163	18
164	5
165	13
166	13
167	13
168	10
169	66
170	16
171	21
172	10
173	18
174	16
175	29
176	8
177	16
178	5
179	10
180	8
181	10
182	10
183	16
184	40
185	184
186	26
187	42
188	10
189	34
190	13
191	37
192	13
193	13
194	5
195	10
196	5
197	10
198	5
199	13
200	5
201	13
202	5
203	16
204	374
205	88
206	34
207	21
208	10
209	13
210	13
211	8
212	5
213	10
214	5
215	18
216	10
217	534
218	114
219	53
220	16
221	16
222	8
223	13
224	10
225	10
226	5
227	16
228	8
229	21
230	10
231	16
232	13
233	16
234	90
235	26
236	16
237	5
238	2
239	13
240	8
241	8
242	2
243	10
244	5
245	16
246	10
247	48
248	18
249	10
250	2
251	29
252	13
253	128
254	26
255	8
256	2
257	21
258	10
259	24
260	13
261	10
262	5
263	5
264	2
265	5
266	2
267	10
268	8
269	8
270	5
272	2
273	13
274	10
275	21
276	10
277	16
278	5
279	5
280	5
281	13
282	8
283	8
284	2
285	5
286	2
287	5
288	5
289	8
290	5
291	13
292	2
293	5
294	2
295	5
296	5
297	8
298	8
299	8
301	13
302	5
303	10
304	8
305	16
306	10
307	8
308	2
309	2
310	2
311	2
312	2
313	8
314	5
315	5
316	10
317	96
318	29
319	24
320	10
321	8
322	2
323	5
324	2
325	8
326	5
327	45
328	16
329	10
330	2
331	8
332	5
333	10
334	5
335	5
336	2
337	2
338	2
339	2
340	2
341	8
342	2
343	2
344	2
345	2
346	2
347	8
348	8
349	8
350	2
353	2
354	8
355	8
357	5
358	2
359	2
361	5
362	2
363	2
368	5
369	5
370	2
371	5
372	8
377	5
383	5
384	10
385	2
386	2
391	5
392	2
393	2
397	10
398	5
399	2
406	10
407	10
408	5
409	2
485	10
486	5
