Mass Spectrum: Morpholine, 3,5-dimethyl-4-nitroso-
Formula: C6H12N2O2
CAS: 55556-87-1
Molecular weight: 144
m/z	intensity
30	119
31	15
38	15
39	159
40	45
41	759
42	999
43	179
44	53
45	65
54	31
55	45
56	37
57	9
58	15
68	69
69	39
70	539
71	37
72	25
84	19
100	39
111	5
113	13
114	339
115	25
144	129
145	9
