Mass Spectrum: o-Toluic acid, TMS derivative
Formula: C11H16O2Si
CAS: 55557-15-8
Molecular weight: 208
m/z	intensity
15	20
17	22
18	96
26	9
27	17
28	55
29	13
39	66
40	9
41	27
42	8
43	43
44	27
45	111
47	40
50	12
51	27
52	9
53	9
55	8
58	10
59	22
61	10
62	11
63	43
64	17
65	194
66	14
72	12
73	159
74	22
75	76
76	9
77	17
79	9
89	68
90	115
91	484
92	40
96	70
97	10
118	311
119	999
120	91
121	15
133	26
135	8
148	15
149	28
150	4
151	1
177	8
192	53
193	716
194	119
195	36
208	227
209	41
210	13
