Mass Spectrum: Pyridine, 1,2,3,6-tetrahydro-1-nitroso-
Formula: C5H8N2O
CAS: 55556-92-8
Molecular weight: 112
m/z	intensity
30	21
39	39
41	26
42	45
53	57
54	61
55	79
56	23
65	19
67	95
68	15
79	51
80	69
81	61
82	246
83	17
95	8
112	999
113	61
114	4
