Mass Spectrum: Piperazine, 2,5-dimethyl-1,4-dinitroso-
Formula: C6H12N4O2
CAS: 55556-88-2
Molecular weight: 172
m/z	intensity
30	153
32	7
38	10
39	138
40	30
41	230
42	230
43	50
44	107
52	10
53	6
54	84
55	63
56	999
57	76
68	50
69	184
70	199
71	36
82	76
83	110
84	27
85	61
97	141
98	12
111	16
112	415
113	30
142	89
143	7
172	35
173	3
