Mass Spectrum: Kojic acid, 2TMS derivative
Formula: C12H22O4Si2
CAS: 55557-21-6
Molecular weight: 286
m/z	intensity
15	18
18	30
28	40
29	20
31	13
39	26
43	63
44	29
45	210
46	15
47	30
55	21
57	13
58	24
59	68
61	18
66	14
67	17
69	19
72	20
73	999
74	90
75	139
77	17
79	15
83	52
85	20
97	20
98	23
99	31
111	25
113	22
128	93
129	17
133	40
141	41
147	263
148	43
149	29
153	55
154	14
155	26
157	19
169	27
182	19
183	54
197	28
204	25
243	17
271	810
272	185
273	82
274	14
