Mass Spectrum: 4-Piperidinone, 1-nitroso-
Formula: C5H8N2O2
CAS: 55556-91-7
Molecular weight: 128
m/z	intensity
30	242
39	60
40	57
41	173
42	999
43	167
44	26
45	16
53	26
54	114
55	239
56	540
57	30
58	59
60	8
68	28
69	18
70	9
74	18
75	19
78	22
84	27
86	12
91	13
97	22
98	29
100	29
111	458
112	27
128	442
129	35
130	2
