Mass Spectrum: Prost-13-en-1-oic acid, 9,11,15-tris[(trimethylsilyl)oxy]-, trimethylsilyl ester, (9.beta.,11.alpha.,13E,15S)-
Formula: C32H68O5Si4
CAS: 55556-77-9
Molecular weight: 644
m/z	intensity
40	11
41	98
42	24
43	127
44	51
45	56
46	4
47	25
48	2
49	5
50	11
51	9
52	8
53	14
54	16
55	127
56	23
57	63
58	13
59	38
60	10
61	22
65	7
66	7
67	75
68	22
69	69
70	15
71	39
72	18
73	999
74	96
75	363
76	28
77	36
78	14
79	53
80	20
81	69
82	18
83	43
84	15
85	20
86	4
89	11
90	3
91	55
92	13
93	54
94	14
95	45
96	15
97	25
98	14
99	22
100	5
101	28
102	5
103	63
104	13
105	46
106	13
107	26
108	10
109	23
110	8
111	15
112	6
113	12
114	4
115	15
116	24
117	100
118	16
119	29
120	9
121	18
122	7
123	13
124	4
129	162
130	38
131	51
132	37
133	53
134	12
135	22
143	28
144	10
145	49
146	11
147	196
148	33
149	45
150	9
151	12
152	5
155	20
156	8
157	15
158	5
159	19
160	6
161	15
162	8
163	10
164	3
165	11
166	4
167	22
168	12
169	16
170	6
171	16
172	7
173	92
174	17
175	18
176	12
177	9
178	4
179	19
180	9
181	23
182	24
183	16
184	5
185	12
186	5
187	15
188	6
189	10
190	6
191	147
192	27
193	24
194	7
199	29
200	7
201	10
202	4
203	15
204	10
205	10
216	4
217	82
218	25
219	15
220	5
221	20
222	6
225	11
226	4
227	5
228	4
231	6
232	2
233	3
237	45
238	13
239	9
243	17
244	5
245	4
251	10
252	5
253	7
256	6
257	11
258	4
259	8
263	11
264	5
265	7
266	4
276	2
277	16
278	6
279	7
303	9
304	3
305	3
313	22
314	7
315	5
327	5
328	3
329	5
330	2
331	2
339	12
340	6
341	12
342	7
343	5
348	13
349	6
350	3
353	25
354	12
355	18
356	8
357	4
365	4
366	14
367	57
368	89
369	32
370	12
371	4
372	2
373	2
374	20
375	13
376	5
377	3
381	11
382	5
383	3
392	3
393	25
394	11
395	7
396	2
397	2
399	3
408	3
409	3
410	4
411	3
412	2
423	6
424	3
425	5
426	4
427	3
428	11
429	8
430	4
431	2
437	4
438	52
439	24
440	10
441	4
442	2
443	11
444	4
445	3
449	8
450	3
456	9
457	10
458	4
459	2
463	3
464	27
465	15
466	8
467	4
482	2
483	37
484	17
485	9
486	3
513	15
514	6
515	3
516	3
517	8
518	4
519	2
539	15
540	7
541	4
553	2
554	28
555	15
556	7
557	2
573	20
574	10
575	6
576	2
629	5
630	2
631	2
644	2
645	1
