Mass Spectrum: 3,16-Dihydroxyandrost-5-en-17-one o-methyloxime, (3.beta.,16.alpha.)-, 2TMS derivative
Formula: C26H47NO3Si2
CAS: 55557-05-6
Molecular weight: 477
m/z	intensity
41	134
42	40
43	80
44	29
45	169
46	14
47	44
48	4
49	4
50	4
51	9
52	9
53	40
54	20
55	160
56	14
57	20
58	24
59	209
60	24
61	60
62	4
63	4
64	4
65	24
66	14
67	160
68	29
69	60
70	29
71	14
72	40
73	999
74	234
75	804
76	64
77	129
78	29
79	240
80	40
81	314
82	29
83	24
84	24
85	24
86	9
87	14
88	9
89	194
90	20
91	320
92	69
93	229
94	69
95	149
96	20
97	14
98	9
99	24
100	80
101	129
102	20
103	100
104	40
105	329
106	80
107	144
108	40
109	44
110	14
111	14
112	4
113	29
114	20
115	69
116	60
117	149
118	54
119	189
120	74
121	74
122	24
123	14
124	9
125	20
126	20
127	20
128	109
129	700
130	154
131	254
132	80
133	180
134	40
135	24
136	9
137	9
138	14
139	9
140	20
141	34
142	69
143	180
144	100
145	254
146	60
147	69
148	14
149	20
150	9
151	14
152	14
153	14
154	24
155	80
156	64
157	180
158	80
159	109
160	54
161	29
162	9
163	9
164	4
165	20
166	20
167	40
168	34
169	74
170	60
171	100
172	60
173	60
174	369
175	120
176	34
177	9
178	9
179	14
180	24
181	49
182	49
183	74
184	80
185	80
186	44
187	14
188	29
189	9
190	9
191	4
192	9
193	24
194	34
195	49
196	44
197	80
198	84
199	84
200	44
201	14
202	9
203	4
204	14
205	9
206	9
207	20
208	24
209	44
210	80
211	60
212	44
213	104
214	40
215	14
216	14
217	9
218	4
219	9
220	9
221	14
222	34
223	24
224	180
225	69
226	60
227	34
228	14
229	9
230	9
231	4
232	4
233	9
234	14
235	14
236	20
237	24
238	40
239	204
240	109
241	20
242	4
243	4
244	4
245	4
246	4
247	9
248	9
249	20
250	29
251	144
252	40
253	4
254	9
255	4
256	9
257	34
258	80
259	14
260	4
261	4
262	4
263	4
264	14
265	24
266	844
267	214
268	29
269	4
270	4
271	4
272	4
273	4
274	9
275	4
281	4
282	24
283	9
284	4
285	4
286	4
287	4
288	4
289	4
290	4
296	20
297	14
298	20
299	9
300	9
301	4
302	20
303	4
304	4
313	9
314	34
315	9
316	24
317	14
318	4
326	24
327	9
328	9
329	14
330	14
331	4
332	4
333	14
334	4
335	4
338	4
339	9
340	24
341	89
342	29
343	9
344	4
345	4
346	4
347	14
348	20
349	4
354	9
355	14
356	460
357	169
358	60
359	9
360	4
371	4
372	94
373	34
374	9
375	4
386	4
387	29
388	14
389	4
390	4
416	14
417	9
418	4
419	4
428	4
429	24
430	169
431	84
432	34
433	9
434	4
443	4
444	14
445	20
446	999
447	320
448	149
449	44
450	9
451	4
460	4
461	9
462	204
463	69
464	24
465	9
466	4
475	4
476	14
477	149
478	49
479	20
480	4
