Mass Spectrum: L-Valine, N-[N-(1-alloisoleucyl-L-prolyl)-N-methylglycyl]-N-methyl-, methyl ester
Formula: C21H38N4O5
CAS: 55555-43-6
Molecular weight: 426
m/z	intensity
109	83
110	50
111	100
112	999
113	166
114	40
123	50
124	33
125	983
126	233
127	40
137	183
138	166
139	60
140	66
141	999
142	999
143	166
144	66
146	200
147	166
150	50
151	16
152	26
153	266
154	999
155	416
156	50
157	33
166	26
167	83
168	83
169	50
179	333
180	50
181	16
182	50
183	6
184	60
185	83
186	26
196	226
197	50
210	33
211	50
215	33
216	106
217	83
224	40
225	6
233	33
234	6
263	40
264	33
282	66
283	16
311	26
312	16
313	33
341	173
342	50
351	50
352	23
369	16
370	6
392	9
393	5
394	12
395	3
396	4
408	73
409	25
410	5
411	5
426	25
427	9
