Mass Spectrum: 4-Piperidinol, 2,2,6,6-tetramethyl-1-nitroso-
Formula: C9H18N2O2
CAS: 55556-90-6
Molecular weight: 186
m/z	intensity
30	174
31	46
39	203
40	40
41	581
42	436
43	209
44	69
53	46
55	215
56	552
57	988
58	290
59	87
67	104
68	116
69	87
70	81
71	999
79	29
81	116
82	116
83	87
84	29
86	813
87	98
88	58
96	46
97	290
98	104
100	58
109	127
112	180
123	34
124	87
130	34
131	29
141	69
156	145
186	290
187	46
