Mass Spectrum: Myo-Inositol, 1,3,4,5,6-pentakis-O-(trimethylsilyl)-, dimethyl phosphate
Formula: C23H57O9PSi5
CAS: 55569-48-7
Molecular weight: 648
m/z	intensity
26	13
27	8
28	16
29	5
30	2
31	2
38	5
39	5
42	2
43	2
44	8
45	49
46	5
47	8
48	2
49	2
50	2
53	2
54	2
55	5
57	2
58	5
59	29
60	5
61	5
62	6
65	2
66	2
67	2
68	5
69	2
71	2
72	10
73	999
74	88
75	82
76	5
77	8
79	2
81	18
83	2
87	2
88	2
89	31
91	2
96	2
99	2
101	8
102	2
103	32
104	8
105	39
106	2
107	5
108	2
109	8
110	2
111	5
113	8
114	2
115	5
116	5
117	8
118	2
119	8
120	2
121	5
123	2
125	2
126	2
127	10
128	2
129	65
130	8
131	26
132	5
133	67
134	10
135	8
136	2
137	5
138	2
139	5
140	2
141	5
142	10
143	21
144	2
145	5
146	2
147	347
148	65
149	39
150	5
151	8
152	5
153	34
154	5
155	10
156	8
157	13
158	2
160	2
161	10
163	8
164	2
165	5
166	2
167	8
168	5
169	8
170	2
171	2
173	2
175	5
177	8
179	2
180	2
181	8
182	8
183	253
184	29
185	13
187	5
189	13
190	18
191	122
192	26
193	13
194	2
195	2
197	26
198	2
199	124
200	18
201	13
202	2
203	8
204	69
205	21
206	8
207	8
208	2
209	2
211	8
212	2
213	2
215	8
216	8
217	205
218	47
219	21
220	5
221	21
222	5
223	5
225	8
226	2
227	10
228	5
229	5
230	29
231	21
232	5
233	5
234	2
239	8
240	5
241	26
242	10
243	26
244	10
245	31
246	31
247	8
248	5
253	22
254	8
255	34
256	10
257	47
258	10
259	5
260	5
261	2
265	18
266	5
267	5
268	2
269	5
270	57
271	328
272	73
273	73
274	13
275	5
281	2
283	2
285	2
291	13
292	8
293	10
294	2
295	2
296	2
299	34
300	13
301	8
302	2
303	2
304	5
305	69
306	44
307	21
308	5
309	2
313	31
314	10
315	55
316	16
317	23
318	25
319	80
320	39
321	8
322	2
323	2
326	31
327	31
328	10
329	16
330	8
331	21
332	26
333	10
334	2
339	18
340	8
341	26
342	55
343	57
344	23
345	69
346	18
347	10
354	52
355	18
356	8
357	2
359	5
360	5
361	2
367	5
369	2
371	2
373	2
374	2
378	29
379	16
380	5
381	2
384	2
385	2
387	21
388	8
389	10
390	2
391	2
393	2
397	2
399	2
405	2
413	10
414	21
415	10
416	5
417	13
418	8
419	26
420	10
421	8
422	2
427	2
429	8
430	5
431	5
432	31
433	31
434	13
435	8
436	5
437	2
441	8
442	2
443	13
444	5
450	5
451	2
453	18
454	8
455	16
456	5
457	5
467	2
468	49
469	23
470	13
471	5
472	2
507	18
508	8
509	5
515	8
516	2
517	2
522	2
543	10
544	5
545	2
633	16
634	8
635	5
648	2
649	1
