Mass Spectrum: 2,5-Thiophenedicarboxylic acid, 3-hydroxy-, dimethyl ester
Formula: C8H8O5S
CAS: 5556-24-1
Molecular weight: 216
m/z	intensity
36	35
37	35
38	25
39	75
40	20
41	85
42	30
43	85
44	999
45	175
46	50
47	20
48	20
51	25
52	20
53	160
54	30
55	80
56	35
57	55
58	50
59	75
60	30
67	35
68	30
69	205
70	50
71	70
72	40
73	20
81	35
82	30
83	35
84	25
85	65
86	15
91	30
93	20
96	20
97	30
98	110
99	35
100	60
101	30
105	25
107	25
109	70
126	50
127	574
128	285
129	80
130	20
142	65
143	30
153	115
154	20
155	15
156	15
157	20
158	265
159	110
160	35
184	999
185	325
186	125
187	30
216	400
217	110
218	35
