Mass Spectrum: Tetracosanoic acid, 2,9-dimethyl-, methyl ester, [S-(R*,S*)]-
Formula: C27H54O2
CAS: 55571-05-6
Molecular weight: 410
m/z	intensity
14	2
15	3
16	9
17	120
18	540
26	2
27	11
28	180
29	34
30	10
31	4
32	44
39	13
40	8
41	120
42	36
43	300
44	320
45	16
46	2
48	4
50	2
51	2
53	11
54	17
55	290
56	110
57	430
58	23
59	54
60	8
61	3
64	15
65	3
66	2
67	37
68	27
69	290
70	71
71	210
72	15
73	36
74	34
75	8
76	2
77	4
78	2
79	9
80	3
81	43
82	25
83	190
84	34
85	130
86	9
87	52
88	999
89	55
90	7
91	5
92	2
93	8
94	4
95	33
96	15
97	120
98	25
99	29
100	6
101	220
102	42
103	4
107	7
108	3
109	20
110	10
111	67
112	18
113	13
114	4
115	36
116	5
119	2
121	6
122	2
123	10
124	5
125	21
126	9
127	9
128	3
129	15
130	17
131	2
135	3
137	6
138	3
139	18
140	5
141	6
143	64
144	21
145	3
151	3
153	6
154	3
155	4
157	65
158	11
163	4
165	3
166	3
167	26
168	7
169	3
171	17
172	10
177	2
180	2
181	5
183	2
185	2
195	2
197	2
199	20
200	4
209	2
213	4
227	5
269	5
278	3
279	2
297	37
298	9
339	2
351	8
352	2
353	26
354	7
367	18
368	5
378	9
379	3
409	4
410	290
411	82
412	13
