Mass Spectrum: Methanesulfonyl-dichloromethanesulfonyl chloride
Formula: C2H3Cl3O4S2
CAS: 55582-38-2
Molecular weight: 260
m/z	intensity
43	430
51	397
53	111
59	59
62	39
63	321
78	70
79	999
81	49
93	130
98	650
100	401
102	69
117	851
119	797
121	251
123	19
146	20
148	9
150	9
