Mass Spectrum: N-Methyl-7-azabicyclo(2,2,1)hept-2-ene
Formula: C7H11N
CAS: 55590-26-6
Molecular weight: 109
m/z	intensity
37	149
38	250
39	999
40	219
41	199
42	927
43	70
50	199
51	220
52	160
53	667
54	320
55	418
66	20
78	50
80	420
81	408
82	70
83	100
94	30
109	19
