Mass Spectrum: Methyl hydroxy(2-methoxyphenyl)acetate, TMS derivative
Formula: C13H20O4Si
CAS: 55590-94-8
Molecular weight: 268
m/z	intensity
43	97
44	79
45	300
47	61
51	88
58	70
59	185
73	999
74	132
75	168
76	61
77	115
89	274
90	88
91	132
92	70
103	70
105	79
135	159
179	97
209	884
210	168
211	88
225	106
253	88
