Mass Spectrum: Cyclohexanecarboxylic acid, 4-(chloromethyl)-1-methyl-, methyl ester
Formula: C10H17ClO2
CAS: 55590-77-7
Molecular weight: 204
m/z	intensity
12	1
13	1
14	6
15	239
16	4
25	0
26	11
27	141
28	19
29	122
30	8
31	13
35	1
36	3
37	2
38	8
39	141
40	34
41	260
42	23
43	75
44	5
45	19
46	1
47	1
48	0
49	21
50	8
51	35
52	15
53	120
54	46
55	273
56	21
57	13
58	2
59	55
60	2
61	7
62	4
63	11
64	2
65	29
66	13
67	257
68	78
69	92
70	15
71	7
72	1
73	13
74	17
75	31
76	2
77	46
78	10
79	46
80	14
81	114
82	21
83	24
84	3
85	7
86	1
87	13
88	39
89	46
90	5
91	55
92	10
93	71
94	36
95	179
96	26
97	6
98	3
99	9
100	2
101	96
102	10
103	55
104	7
105	28
106	5
107	39
108	95
109	999
110	95
111	10
112	3
113	8
114	12
115	13
116	2
117	3
118	1
119	2
120	0
121	5
122	2
123	6
124	1
125	6
126	3
127	10
128	5
129	7
130	2
131	4
132	1
133	1
135	10
136	21
137	15
138	3
139	20
140	3
141	3
142	2
143	7
144	141
145	472
146	88
147	141
148	16
149	2
150	0
151	1
152	1
153	7
154	2
155	15
156	1
157	2
159	1
165	2
166	1
167	1
168	46
169	23
170	2
171	0
172	1
173	6
174	1
175	4
189	53
190	7
191	20
192	2
193	0
196	6
197	2
203	1
204	59
205	9
206	20
207	2
