Mass Spectrum: Methyl 3-hydroxybutyrate, TMS derivative
Formula: C8H18O3Si
CAS: 55590-74-4
Molecular weight: 190
m/z	intensity
41	40
42	20
43	90
44	35
45	135
46	10
47	60
51	10
55	10
57	30
58	45
59	145
60	15
61	45
66	20
69	20
71	10
72	30
73	545
74	50
75	190
76	15
77	15
85	20
88	10
89	999
90	65
91	45
101	35
103	20
105	25
115	35
116	10
117	250
118	25
119	10
130	40
131	50
132	10
133	390
134	40
135	15
159	10
175	485
176	60
177	20
190	10
