Mass Spectrum: Pentanedioic acid, 2-(methoxyimino)-, dimethyl ester
Formula: C8H13NO5
CAS: 55590-75-5
Molecular weight: 203
m/z	intensity
40	32
41	86
42	231
43	103
44	82
45	208
46	14
47	63
49	9
50	6
51	26
52	74
53	52
54	413
55	232
56	77
57	64
58	109
59	999
60	48
61	18
63	6
66	12
67	40
68	404
69	67
70	38
71	32
72	36
73	180
74	29
75	143
76	13
77	54
78	17
79	15
80	75
81	19
82	170
83	20
84	125
85	35
86	28
87	21
88	16
89	10
90	6
91	7
93	10
94	7
95	7
96	12
97	7
98	26
99	35
100	101
101	12
102	15
103	21
108	7
109	10
111	8
112	298
113	40
114	58
115	94
116	43
117	12
128	20
129	10
130	10
131	8
133	10
139	10
140	278
141	26
142	6
143	71
144	125
146	8
147	7
148	79
149	13
152	8
153	8
156	23
159	9
166	6
167	10
170	9
171	121
172	32
173	7
186	10
187	8
188	10
189	6
195	7
203	37
204	7
