Mass Spectrum: Pentanoic acid, 2-methylbutyl ester
Formula: C10H20O2
CAS: 55590-83-5
Molecular weight: 172
m/z	intensity
26	21
27	247
28	123
29	478
30	15
31	28
37	3
38	6
39	150
40	27
41	479
42	189
43	423
44	26
45	46
50	3
51	7
52	3
53	23
54	11
55	281
56	84
57	579
58	31
59	8
60	122
61	18
67	5
69	19
70	775
71	191
72	28
73	66
74	13
75	15
83	8
85	999
86	53
87	27
88	4
100	8
101	6
102	23
103	63
104	5
114	4
115	23
116	2
130	7
142	7
143	2
