Mass Spectrum: 1,2,3-Propanetricarboxylic acid, 1,2-bis[(trimethylsilyl)oxy]-, trimethyl ester
Formula: C15H30O8Si2
CAS: 55591-00-9
Molecular weight: 394
m/z	intensity
43	27
44	27
45	101
46	10
47	19
55	19
57	25
58	23
59	296
60	21
61	25
69	21
71	8
72	27
73	999
74	99
75	169
76	12
77	8
83	12
85	16
88	6
89	411
90	33
91	25
99	12
101	173
102	80
103	29
104	8
105	411
106	33
107	16
113	78
114	6
115	36
116	10
117	14
119	12
121	16
125	6
127	6
129	88
130	61
131	57
132	12
133	97
134	12
135	10
141	63
142	6
143	25
145	19
146	42
147	156
148	25
149	23
156	6
157	10
159	110
160	12
161	38
162	36
163	50
164	10
169	6
171	27
172	10
173	72
174	12
175	14
183	21
187	169
188	25
189	25
191	57
192	10
199	14
201	133
202	16
203	27
204	8
205	10
215	222
216	31
217	50
218	10
219	19
220	6
229	10
231	48
232	21
233	423
234	381
235	108
236	42
237	8
243	6
245	29
246	6
247	50
248	8
257	25
261	42
262	8
273	21
274	8
275	46
276	12
277	6
287	29
288	10
289	61
290	12
291	19
302	6
303	150
304	46
305	23
306	12
318	6
319	148
320	42
321	21
333	6
335	52
336	14
337	6
351	6
363	27
364	10
378	8
379	182
380	57
381	21
382	6
