Mass Spectrum: 1H-Indene-4-methanol, 2,3-dihydro-.alpha.,.alpha.,1,1-tetramethyl-
Formula: C14H20O
CAS: 55591-13-4
Molecular weight: 204
m/z	intensity
13	1
14	23
15	117
16	8
17	6
18	19
19	4
25	0
26	4
27	73
28	115
29	60
30	2
31	40
32	22
37	1
38	5
39	73
40	9
41	79
42	7
43	999
44	23
45	5
49	0
50	12
51	47
52	11
53	27
54	2
55	21
56	2
57	9
58	5
59	106
60	4
61	1
62	7
63	33
64	23
65	27
66	5
67	7
68	1
69	5
70	6
71	11
72	7
73	6
74	10
75	11
76	20
77	49
78	16
79	27
80	2
81	2
82	3
83	3
84	2
85	12
86	48
87	110
89	12
90	4
91	107
92	9
93	3
94	1
95	1
98	3
99	2
100	1
101	8
102	22
103	28
104	7
105	47
106	4
107	1
109	0
110	1
111	1
112	1
113	5
114	7
115	153
116	45
117	27
118	5
119	11
120	5
121	4
122	2
123	1
125	2
126	10
127	53
128	145
129	140
130	47
131	117
132	14
133	32
134	3
135	1
137	0
138	1
139	16
140	6
141	48
142	33
143	104
144	17
145	38
146	6
147	11
148	2
149	0
150	1
151	4
152	14
153	16
154	10
155	30
156	41
157	24
158	10
159	10
160	5
161	7
162	3
163	3
164	3
165	5
166	3
167	3
168	3
169	9
170	14
171	514
172	76
173	23
174	5
175	2
176	1
178	1
179	1
181	1
183	1
184	2
185	7
186	426
187	72
188	10
189	426
190	60
191	5
202	0
203	5
204	20
205	3
206	0
