Mass Spectrum: Glyodin acetate
Formula: C22H44N2O2
CAS: 556-22-9
Molecular weight: 368
m/z	intensity
51	1
52	1
53	5
54	15
55	52
56	17
57	25
58	2
59	1
61	1
62	1
63	1
64	1
65	1
66	2
67	15
68	12
69	15
70	9
71	7
72	1
73	2
74	1
75	1
76	1
77	1
78	1
79	3
80	3
81	10
82	33
84	999
85	58
86	2
87	1
89	1
90	1
91	1
92	1
93	2
94	3
95	20
96	13
97	421
98	122
99	8
100	1
101	1
103	1
104	1
105	1
106	1
107	1
108	3
109	7
110	8
111	60
112	12
113	1
115	1
116	1
117	1
118	1
119	1
120	1
121	2
122	2
123	13
124	6
125	43
126	13
127	1
128	1
129	1
131	1
133	1
134	1
135	2
136	1
137	7
138	2
139	111
140	16
141	1
142	1
144	1
145	1
146	1
147	1
148	1
149	1
150	1
151	4
152	2
153	46
154	6
155	1
156	1
157	1
158	1
159	1
160	1
161	1
162	1
163	1
164	1
165	3
167	27
168	4
169	1
173	1
177	1
178	1
179	2
180	1
181	22
182	4
183	1
184	1
185	1
186	1
190	1
191	1
192	1
193	2
194	1
195	28
196	5
197	1
199	1
201	1
202	1
204	1
205	1
206	1
207	10
208	2
209	20
210	3
211	1
212	1
213	1
215	1
218	1
219	1
221	2
222	1
223	16
224	3
225	1
227	1
233	1
235	1
236	1
237	14
238	3
239	1
240	1
243	1
247	1
248	1
249	1
250	1
251	14
252	3
253	1
254	1
255	1
258	1
263	1
264	1
265	18
266	3
267	1
268	1
270	1
271	1
275	1
276	1
277	1
278	1
279	15
280	6
281	4
293	4
294	1
307	59
308	31
309	6
310	1
