Mass Spectrum: Diimidotricarbonic diamide
Formula: C3H6N4O3
CAS: 556-99-0
Molecular weight: 146
m/z	intensity
16	3
17	8
18	3
26	3
27	14
28	30
29	45
30	10
31	15
32	4
35	5
36	18
37	2
38	11
39	16
40	1
41	77
42	23
43	739
44	999
45	11
46	6
48	3
50	3
52	5
53	12
54	18
55	63
56	21
57	38
58	1
59	25
60	490
61	97
62	2
63	4
64	9
65	4
66	6
67	34
68	39
69	49
70	205
71	22
72	5
73	24
74	3
75	2
78	6
79	15
80	10
81	24
82	20
83	38
84	32
85	6
86	236
87	149
88	12
89	2
91	8
92	3
93	11
94	13
95	32
96	13
97	19
98	16
99	8
100	5
101	9
103	245
104	5
105	8
106	4
107	3
108	8
109	16
111	20
112	9
113	12
114	4
115	6
116	3
118	1
119	4
120	4
121	6
122	5
123	7
124	7
125	9
126	3
129	680
130	762
131	61
132	11
133	4
146	104
147	13
148	3
149	3
