Mass Spectrum: 4(5H)-Thiazolone, 2-imino-
Formula: C3H4N2OS
CAS: 556-90-1
Molecular weight: 116
m/z	intensity
12	3
13	19
14	52
15	9
16	5
17	1
18	2
25	1
26	3
27	27
28	113
29	17
30	4
31	1
32	32
33	15
34	6
35	1
36	1
38	4
39	7
40	13
41	67
42	453
43	999
44	38
45	274
46	842
47	102
48	47
49	4
50	1
51	2
52	1
53	6
54	3
55	5
56	2
57	4
58	10
59	32
60	36
61	7
62	2
64	1
67	1
68	1
69	99
70	93
71	9
72	10
73	17
74	73
75	4
76	5
77	1
81	1
82	1
83	1
84	1
85	1
86	2
87	3
88	28
89	2
90	2
92	9
95	1
97	1
99	1
115	1
116	923
117	54
118	44
119	2
