Mass Spectrum: Crotonoyl bromide
Formula: C4H5BrO
CAS: 55600-70-9
Molecular weight: 148
m/z	intensity
12	2
13	4
14	6
15	20
16	1
17	1
18	2
24	3
25	12
26	54
27	42
28	18
29	7
32	3
33	2
34	2
35	1
36	15
37	68
38	125
39	788
40	122
41	576
42	37
43	7
44	9
45	8
48	2
49	8
50	10
51	6
52	2
53	16
54	4
55	3
57	2
58	1
59	1
60	2
63	1
64	2
65	1
66	3
67	3
68	83
69	999
70	45
71	6
73	1
76	1
77	1
79	34
80	35
81	36
82	34
85	1
86	27
87	6
88	1
91	1
92	1
93	4
94	1
95	2
104	2
105	2
106	1
107	9
108	1
109	7
119	2
120	1
121	34
122	2
123	31
124	1
148	29
149	1
150	27
151	1
