Mass Spectrum: Benzenesulfonamide, 4-(4-morpholylsulfonyl)-
Formula: C10H14N2O5S2
CAS: 55619-44-8
Molecular weight: 306
m/z	intensity
37	0
38	5
39	22
40	20
41	42
42	103
43	16
44	12
45	10
46	3
48	9
50	91
51	25
52	9
53	7
54	42
55	79
56	718
57	46
58	16
59	5
60	2
61	0
62	4
63	26
64	44
65	39
66	5
67	2
68	2
69	15
70	14
72	80
74	27
75	117
76	137
77	30
78	6
79	6
80	19
81	6
82	4
83	4
84	30
86	999
87	50
88	3
89	5
90	12
91	15
92	10
93	4
94	2
95	10
96	7
97	3
98	0
101	0
102	1
103	2
104	5
105	3
106	3
107	10
108	21
109	14
110	3
111	5
112	2
113	2
116	0
117	2
118	4
119	2
120	2
121	1
122	0
123	7
124	12
125	2
126	0
127	2
128	0
129	2
130	2
131	2
132	6
133	2
134	5
135	0
136	0
139	70
140	33
141	10
142	2
143	0
148	0
149	1
150	2
151	1
152	1
153	0
154	7
156	261
157	22
158	12
159	1
160	0
161	0
162	1
166	0
167	1
168	2
169	0
171	39
172	3
173	2
175	1
177	11
178	2
181	0
182	0
183	5
184	12
185	1
188	0
189	0
191	1
193	0
194	1
195	1
196	0
198	3
199	0
203	2
204	7
205	1
211	16
212	2
213	0
220	157
221	13
222	14
223	0
224	0
226	1
227	0
241	1
242	0
246	1
247	0
249	6
250	0
261	3
263	213
264	20
265	18
266	2
267	0
275	49
276	6
277	5
291	7
292	0
293	0
302	0
304	2
306	201
307	24
308	17
309	1
310	0
