Mass Spectrum: 6-[3-Chloro-4-methoxyphenyl]-5-[4-chlorophenyl]-2,2-dimetyl-3-hexanone
Formula: C21H24Cl2O2
CAS: 55614-53-4
Molecular weight: 378
m/z	intensity
41	224
43	76
45	5
47	9
49	45
51	79
52	9
53	10
55	35
57	999
58	7
59	0
60	0
61	0
62	2
63	26
65	18
67	10
69	17
70	8
71	7
73	8
75	28
77	226
78	14
79	3
81	11
82	6
83	24
84	19
85	239
86	26
87	9
89	42
90	23
91	20
92	5
93	3
95	11
97	11
99	10
101	27
102	12
103	71
105	76
106	5
107	3
108	1
109	5
112	41
113	3
114	16
115	15
116	5
117	2
119	3
121	94
122	18
123	8
125	51
127	25
128	3
129	1
130	2
131	3
132	2
133	1
135	5
137	7
138	120
139	21
140	30
141	11
142	4
143	3
144	0
145	2
146	2
147	1
149	17
151	11
152	2
153	14
155	806
157	376
158	26
159	1
161	1
163	10
165	61
166	16
167	8
169	7
170	1
171	2
172	1
173	1
174	0
175	3
176	8
177	3
178	20
179	6
180	2
181	2
183	1
184	0
186	1
187	1
188	0
189	3
190	1
191	1
193	5
194	6
195	2
196	0
197	0
199	6
200	2
201	2
202	1
203	1
205	2
207	0
208	8
209	5
210	1
212	3
213	1
214	2
215	1
217	1
219	0
221	0
223	8
225	4
226	0
227	1
228	2
229	5
230	1
231	1
233	0
235	0
236	2
237	0
238	0
240	1
242	1
244	32
245	7
246	10
247	2
248	0
249	0
256	0
257	2
258	1
259	0
263	5
264	1
265	4
266	1
267	1
268	0
269	0
276	1
278	235
279	30
280	134
281	21
282	18
283	4
284	0
286	0
291	0
293	1
310	7
311	0
312	4
313	0
314	0
321	2
323	2
324	0
344	1
378	10
379	3
380	8
381	1
382	2
