Mass Spectrum: Propanenitrile, 3-(ethylpropylamino)-
Formula: C8H16N2
CAS: 55619-10-8
Molecular weight: 140
m/z	intensity
27	10
28	20
41	50
42	162
43	62
44	12
52	10
54	110
56	75
57	15
58	170
68	12
70	25
71	23
72	45
81	10
82	18
83	240
84	42
95	10
97	13
98	10
100	527
101	43
111	999
112	75
125	62
139	17
140	78
