Mass Spectrum: 6-[3-Chlorophenyl]-5-[4-chlorophenyl]-2,2-dimethyl-3-hexanone
Formula: C20H22Cl2O
CAS: 55614-50-1
Molecular weight: 348
m/z	intensity
41	192
42	24
43	21
45	1
47	19
49	121
51	64
52	2
53	6
55	14
57	999
58	37
59	1
60	0
62	1
63	24
64	1
65	7
67	2
69	7
70	11
71	4
73	5
75	20
77	39
78	3
82	1
84	63
85	333
86	45
88	8
89	69
90	11
91	6
92	0
94	1
95	1
97	1
99	15
101	37
103	80
104	4
105	1
107	3
111	1
112	8
113	2
115	21
116	6
117	1
123	1
125	96
127	38
128	1
129	0
131	3
137	26
138	90
139	11
140	39
141	5
143	0
149	4
151	10
153	14
155	3
161	0
163	2
165	9
167	7
169	2
174	1
176	12
178	72
179	30
180	4
181	0
186	0
187	0
189	5
191	2
192	1
194	0
199	2
200	0
201	0
205	0
212	2
213	16
214	19
215	7
216	6
217	0
220	0
223	1
225	1
227	1
245	0
248	257
249	117
250	187
251	83
252	35
253	12
254	1
291	10
293	9
294	1
295	1
347	0
348	5
350	3
352	2
