Mass Spectrum: 5-[3,4-Dichlorophenyl]-2,2-dimethyl-4-pentene-3-one
Formula: C13H14Cl2O
CAS: 55614-72-7
Molecular weight: 256
m/z	intensity
41	748
43	96
45	9
47	15
48	6
49	71
50	61
51	102
53	38
55	56
57	999
58	33
59	0
60	2
61	10
62	20
63	32
65	7
66	0
67	8
68	28
69	16
70	8
71	5
72	4
73	19
74	112
75	149
77	24
79	3
81	6
82	3
84	93
85	32
86	56
87	16
88	6
89	4
91	2
92	0
93	0
94	1
95	6
96	3
97	11
98	19
99	103
100	35
101	75
102	23
103	6
105	1
106	1
107	1
108	3
109	55
110	16
111	25
112	6
113	5
114	2
115	9
116	0
119	2
120	0
121	3
123	7
124	1
125	4
126	4
127	6
128	7
129	3
131	0
132	2
133	2
134	3
135	144
136	302
137	68
138	79
139	7
140	0
141	4
142	4
143	10
145	15
146	1
147	8
148	1
149	4
150	2
151	1
152	2
153	2
157	0
159	7
161	6
162	4
163	5
164	15
165	20
166	6
167	6
170	10
171	117
172	11
173	97
174	5
175	19
176	2
177	2
178	6
179	1
180	2
183	1
185	2
187	1
191	0
193	2
195	0
198	1
199	703
200	61
201	441
202	43
203	85
204	8
206	0
213	17
215	14
216	1
217	2
228	31
229	3
230	22
231	3
232	9
241	3
243	2
256	39
257	9
258	27
259	5
260	4
