Mass Spectrum: 6H-Purin-6-one, 1,7-dihydro-1,7-bis(trimethylsilyl)-
Formula: C11H20N4OSi2
CAS: 55622-58-7
Molecular weight: 280
m/z	intensity
73	999
75	941
77	217
79	246
147	164
148	26
149	17
158	176
159	29
160	8
206	64
207	46
217	23
218	35
241	38
265	682
266	146
267	61
280	341
281	85
282	35
