Mass Spectrum: Acetamide, N-[1-methoxy-2-oxo-7-[(trimethylsilyl)oxy]-3,9-dioxabicyclo[3.3.1]non-6-yl]-
Formula: C13H23NO6Si
CAS: 55622-39-4
Molecular weight: 317
m/z	intensity
40	5
41	75
42	79
43	432
44	76
45	182
46	15
47	61
48	8
49	4
50	15
51	17
52	37
53	27
54	32
55	63
56	367
57	128
58	27
59	177
60	41
61	50
62	3
63	6
64	12
65	19
66	23
67	37
68	35
69	46
70	44
71	65
72	76
73	999
74	95
75	223
76	30
77	32
78	17
79	38
80	80
81	32
82	50
83	32
84	466
85	29
86	28
87	8
88	4
89	62
90	12
91	15
92	17
93	25
94	17
95	27
96	30
97	25
98	418
99	326
100	51
101	41
102	18
103	7
104	21
105	126
106	16
107	10
108	21
109	35
110	41
111	29
112	25
113	17
114	47
115	29
116	93
117	72
118	6
119	9
120	5
121	7
122	28
123	10
124	13
125	25
126	32
127	16
128	41
129	27
130	48
131	55
132	23
133	247
134	29
135	14
136	4
137	6
138	12
139	12
140	34
141	23
142	15
143	74
144	30
145	12
146	18
147	13
148	5
150	8
151	8
152	5
154	4
155	65
156	47
157	13
158	21
159	30
160	5
161	4
166	5
167	1
168	8
169	1
170	22
171	126
172	44
173	35
175	132
176	27
177	5
181	5
182	4
183	37
184	18
185	36
186	17
187	3
198	44
200	184
201	10
204	46
210	23
211	18
214	112
215	93
219	7
223	41
240	47
241	47
242	47
243	47
274	141
275	47
282	47
302	187
303	47
