Mass Spectrum: 2,4(1H,3H)-Pyrimidinedione, 1,3-dimethyl-5,6-diphenyl-
Formula: C18H16N2O2
CAS: 55625-99-5
Molecular weight: 292
m/z	intensity
26	2
27	13
28	9
29	4
38	5
39	54
40	3
41	1
42	10
50	24
51	79
52	14
53	3
56	10
57	1
58	12
61	3
62	18
63	61
64	10
65	14
66	3
69	2
70	2
74	14
75	25
76	59
77	297
78	25
81	1
82	8
83	5
86	6
87	17
88	30
89	126
90	16
91	56
92	6
96	3
97	7
98	5
99	4
100	3
101	7
102	32
103	54
104	14
105	9
109	2
110	7
111	3
113	6
114	7
115	15
116	16
117	21
118	999
119	84
120	4
124	4
125	4
126	16
127	6
128	7
129	3
130	5
131	6
132	4
137	4
138	8
139	19
140	5
145	5
146	48
150	11
151	22
152	24
153	6
163	15
164	17
165	59
166	13
174	2
175	6
176	36
177	29
178	69
179	22
180	5
188	9
189	9
190	29
191	14
192	11
193	4
194	3
203	3
204	14
205	90
206	51
207	24
208	5
218	4
219	16
220	6
232	4
233	9
234	232
235	59
236	9
247	3
263	3
264	5
265	2
275	6
276	3
277	4
290	27
291	740
292	816
293	142
294	17
