Mass Spectrum: 3-Azabicyclo[3.3.1]nonan-9-one, 3-methyl-6-(1-pyrrolidinyl)-
Formula: C13H22N2O
CAS: 55622-40-7
Molecular weight: 222
m/z	intensity
37	30
38	50
39	326
40	104
41	668
42	766
43	427
44	239
49	161
50	78
51	130
52	189
53	152
54	187
55	387
56	78
57	82
58	187
78	58
79	50
80	313
81	130
82	161
83	87
84	758
85	54
92	21
93	21
94	135
95	67
96	339
97	339
98	98
107	24
108	37
109	139
110	999
111	278
112	61
113	32
120	34
121	39
122	98
123	130
124	52
125	17
135	26
136	54
137	21
138	15
139	17
150	146
151	56
152	167
153	26
178	39
179	21
221	274
222	135
223	17
