Mass Spectrum: 2-Heptene, 1-chloro-, (Z)-
Formula: C7H13Cl
CAS: 55638-53-4
Molecular weight: 132
m/z	intensity
12	3
13	5
14	19
15	114
16	4
17	2
18	6
19	2
25	5
26	86
27	774
28	148
29	297
30	7
35	8
36	18
37	25
38	62
39	557
40	84
41	999
42	301
43	581
44	33
45	91
46	4
47	2
48	2
49	45
50	37
51	85
52	33
53	268
54	709
55	813
56	755
57	221
58	11
59	2
60	1
61	11
62	24
63	30
64	8
65	40
66	17
67	203
68	63
69	122
70	159
71	140
72	8
73	17
74	3
75	47
76	13
77	32
78	8
79	14
80	4
81	155
82	12
83	93
84	8
85	7
86	3
87	4
88	13
89	33
90	71
91	33
92	25
93	8
94	2
95	17
96	97
97	80
98	18
99	26
100	2
103	10
104	23
105	5
106	7
115	3
117	2
124	4
126	2
131	1
132	70
133	6
134	22
135	2
