Mass Spectrum: 3-Decen-5-yne, 2,2-dimethyl-, (Z)-
Formula: C12H20
CAS: 55638-49-8
Molecular weight: 164
m/z	intensity
12	1
13	2
14	10
15	111
16	3
17	2
18	5
25	1
26	29
27	552
28	49
29	427
30	9
37	9
38	14
39	453
40	55
41	736
42	57
43	274
44	10
45	1
49	3
50	50
51	180
52	66
53	163
54	33
55	435
56	29
57	140
58	10
61	11
62	51
63	170
64	47
65	244
66	61
67	193
68	20
69	206
70	102
71	8
72	2
73	3
74	25
75	32
76	18
77	485
78	131
79	495
80	66
81	215
82	140
83	46
84	4
85	3
86	7
87	10
88	1
89	35
90	18
91	652
92	93
93	999
94	144
96	20
97	2
98	4
99	3
100	1
101	4
102	11
103	60
104	29
105	247
106	78
107	726
108	97
109	53
110	5
115	22
116	7
117	20
118	5
119	54
120	22
121	420
122	51
123	28
124	2
128	2
129	1
131	1
133	5
134	6
135	36
136	11
147	3
148	3
149	274
150	33
151	3
163	2
164	398
165	52
166	5
