Mass Spectrum: 3,5-Decadiene, 2,2-dimethyl-, (Z,Z)-
Formula: C12H22
CAS: 55638-50-1
Molecular weight: 166
m/z	intensity
12	1
13	1
14	8
15	97
16	2
17	2
18	8
26	25
27	529
28	61
29	455
30	10
31	1
37	5
38	19
39	390
40	57
41	852
42	57
43	351
44	12
45	3
50	50
51	136
52	68
53	256
54	110
55	447
56	42
57	999
58	46
59	2
61	3
62	13
63	47
64	13
65	126
66	58
67	480
68	119
69	208
70	92
71	20
74	6
75	9
76	5
77	230
78	59
79	215
80	53
81	687
82	143
83	91
84	12
85	9
86	2
87	2
89	7
90	5
91	165
92	28
93	162
94	35
95	853
96	196
97	23
98	3
102	2
103	8
104	3
105	26
106	6
107	48
108	28
109	495
110	195
111	16
112	2
115	3
117	2
119	3
120	2
121	13
122	6
123	468
124	50
125	3
135	1
137	17
138	3
150	1
151	192
152	23
153	1
165	1
166	353
167	47
168	3
