Mass Spectrum: Propenamide, 2-acetamido-3-phenyl-N-benzyl-
Formula: C18H18N2O2
CAS: 55636-11-8
Molecular weight: 294
m/z	intensity
33	24
34	3
35	3
36	0
37	5
39	168
40	50
41	60
43	999
44	52
46	12
47	9
48	4
50	49
51	125
52	33
53	8
54	2
55	6
56	12
57	8
60	2
61	19
62	22
63	89
64	42
65	214
66	12
69	2
70	2
71	2
72	2
74	13
75	17
76	24
77	158
78	36
79	49
80	2
83	5
86	7
87	9
89	184
90	216
91	871
92	72
93	3
102	26
103	17
104	69
105	166
106	972
107	278
108	32
109	14
114	0
116	63
117	247
118	178
119	100
120	7
121	1
122	0
123	0
129	7
130	31
131	9
132	5
133	4
134	19
135	17
136	3
143	1
144	4
145	2
146	4
147	16
148	5
149	0
159	11
160	9
161	11
162	1
165	1
181	4
187	37
188	40
189	7
191	5
192	3
193	0
196	3
203	1
206	13
207	15
208	9
209	0
234	5
235	12
236	1
251	9
252	74
253	11
267	8
268	3
276	0
278	0
293	10
294	108
295	22
296	0
