Mass Spectrum: Sulfonium, [(chloroacetyl)amino]dimethyl-, hydroxide, inner salt
Formula: C4H8ClNOS
CAS: 55649-94-0
Molecular weight: 153
m/z	intensity
43	2
44	16
45	31
46	59
47	97
48	3
49	41
50	32
51	56
55	4
56	8
57	3
60	1
61	86
62	429
63	18
64	26
69	2
76	10
77	21
79	5
88	8
89	102
90	30
91	6
94	5
97	10
101	21
104	999
105	47
106	50
118	13
120	6
124	5
126	2
131	5
147	1
153	10
154	9
155	4
156	5
