Mass Spectrum: Silanol, dimethyl(1,1,2-trimethylpropyl)-
Formula: C8H20OSi
CAS: 55644-10-5
Molecular weight: 160
m/z	intensity
26	1
27	26
28	2
29	14
30	0
31	1
37	0
38	1
39	23
40	3
41	67
42	10
43	59
44	2
45	74
46	5
47	73
48	4
49	3
50	0
51	3
52	0
53	7
54	1
55	23
56	8
57	8
58	1
59	10
60	19
61	29
62	2
63	2
65	1
66	0
67	4
68	1
69	106
70	31
71	3
72	2
73	8
74	15
75	999
76	66
77	35
78	1
79	0
83	3
84	227
85	24
86	2
87	4
88	0
94	0
99	1
100	3
101	7
102	4
103	1
115	0
117	0
145	3
146	0
147	0
160	2
161	0
162	0
