Mass Spectrum: 2-Pteridinamine, 6-methyl-N,N-bis(trimethylsilyl)-4-[(trimethylsilyl)oxy]-
Formula: C16H31N5OSi3
CAS: 55649-43-9
Molecular weight: 393
m/z	intensity
53	15
54	26
55	157
56	94
57	252
58	42
59	68
60	10
61	42
65	5
66	15
67	36
68	26
69	84
70	42
71	126
72	52
73	999
74	100
75	473
76	42
77	42
79	15
80	10
81	31
82	15
83	52
84	52
85	63
86	15
89	10
91	21
93	42
94	5
95	36
96	15
97	36
98	31
99	52
100	57
101	15
102	5
103	5
104	5
105	5
106	5
107	5
109	15
110	5
111	31
112	5
113	5
114	36
115	15
116	115
117	84
118	31
119	21
122	5
123	5
124	5
125	5
126	5
127	5
128	15
129	42
130	31
131	42
132	63
133	52
134	5
135	15
137	21
140	5
141	5
143	5
144	36
145	36
146	15
147	184
148	36
149	36
155	5
156	5
157	5
158	15
159	5
160	5
163	42
164	5
169	21
171	42
172	5
173	15
185	5
187	21
188	57
189	15
190	31
191	31
192	31
193	21
198	5
200	5
201	5
202	5
207	42
208	5
209	5
215	5
216	15
217	5
218	5
221	5
229	15
231	5
232	5
233	5
234	5
235	5
239	5
243	5
245	5
248	5
249	5
264	31
265	5
266	5
267	5
281	5
290	5
306	305
307	78
308	36
313	21
314	5
320	15
321	194
322	57
323	15
338	5
341	31
342	5
356	5
378	78
379	31
393	42
394	15
395	5
