Mass Spectrum: Sulfonium, (benzoylamino)dimethyl-, hydroxide, inner salt
Formula: C9H11NOS
CAS: 55649-96-2
Molecular weight: 181
m/z	intensity
14	6
15	33
16	27
17	95
18	348
19	17
27	34
35	17
38	5
39	19
40	6
45	36
46	38
50	50
51	151
52	6
53	4
57	6
61	345
62	445
63	40
64	49
65	9
69	13
74	7
76	10
77	384
78	25
89	23
90	4
91	72
104	999
105	940
106	127
119	29
134	531
135	40
136	4
139	9
150	11
151	36
164	21
166	179
167	9
173	11
176	7
181	450
182	140
183	29
184	17
