Mass Spectrum: 2,7:3,6-Dimethanonaphth[2,3-b]oxiren-8-ol, 3,4,5,6,9,9-hexachloro-1a,2,2a,3,6,6a,7,7a-octahydro-, acetate, stereoisomer
Formula: C14H10Cl6O3
CAS: 55649-85-9
Molecular weight: 436
m/z	intensity
15	27
16	2
17	14
18	61
26	6
27	20
28	67
29	16
31	3
32	2
35	7
36	47
37	2
38	15
39	27
40	7
41	24
42	11
43	999
44	7
50	8
51	19
52	6
53	11
54	2
55	22
56	6
57	11
58	2
60	2
61	6
62	5
63	10
65	22
66	20
67	45
68	11
69	52
70	6
71	10
72	1
73	10
74	8
75	11
76	1
77	26
78	75
79	28
80	19
81	41
82	10
83	11
84	6
85	10
86	7
87	7
88	2
89	8
91	9
93	5
94	29
95	79
96	14
97	25
98	12
99	11
100	9
101	8
103	8
104	2
105	26
106	19
107	9
108	7
109	12
110	5
111	8
112	5
113	44
114	3
115	21
117	8
118	2
119	17
120	5
121	11
122	6
123	32
124	34
125	10
126	7
127	4
128	3
129	18
130	6
131	19
132	4
133	11
134	4
135	10
136	4
137	8
138	3
139	3
140	1
141	18
142	2
143	13
144	2
145	7
146	2
147	6
148	3
149	32
150	5
151	4
155	4
156	3
157	11
158	3
159	24
160	14
161	13
162	12
163	6
164	3
165	6
166	2
167	14
168	4
169	17
170	11
171	8
172	8
173	11
174	4
175	5
179	2
180	4
181	10
182	7
183	25
184	6
185	15
186	4
187	4
189	7
191	18
192	4
193	20
194	11
195	14
196	34
197	17
198	21
199	10
200	6
201	21
202	15
203	34
204	19
205	4
206	22
207	23
208	11
209	17
210	5
211	7
212	3
213	2
214	4
215	3
216	10
217	28
218	19
219	35
220	18
221	17
222	8
223	20
224	8
225	17
226	8
227	20
228	10
229	22
230	31
231	45
232	34
233	40
234	18
235	72
236	98
237	113
238	150
239	81
240	112
241	37
242	39
243	49
244	18
245	41
246	12
247	17
248	8
249	6
251	14
252	13
253	18
254	17
255	16
256	10
257	14
258	6
259	53
260	16
261	92
262	21
263	96
264	26
265	46
266	34
267	43
268	21
269	28
270	43
271	20
272	81
273	13
274	62
275	9
276	28
277	43
278	21
279	55
280	20
281	37
282	12
283	15
284	5
285	6
287	21
288	8
289	25
290	6
291	11
292	5
293	9
294	7
295	48
296	14
297	56
298	14
299	29
300	12
301	13
302	6
303	7
304	4
305	12
306	6
307	13
308	6
309	8
312	11
313	14
314	18
315	21
316	14
317	15
318	6
319	5
320	1
321	1
322	5
323	56
324	14
325	73
326	15
327	36
328	7
329	12
330	5
331	8
332	5
333	6
334	4
335	2
341	11
342	1
343	18
344	2
345	12
347	3
349	1
358	8
359	27
360	18
361	42
362	15
363	24
364	8
365	10
366	2
367	3
393	7
394	3
395	13
396	6
397	11
398	5
399	5
400	3
421	22
422	5
423	43
424	7
425	24
426	5
427	9
436	1
