Mass Spectrum: 1-Naphthalenepropanol, .alpha.-ethenyldecahydro-8a-(hydroxymethyl)-.alpha.,5-dimethyl-2-methylene-
Formula: C19H32O2
CAS: 55649-42-8
Molecular weight: 292
m/z	intensity
71	749
81	999
93	929
107	260
119	220
121	629
133	190
135	220
139	150
147	110
148	20
161	260
173	60
175	60
189	150
201	30
206	30
216	40
231	20
232	20
241	60
246	70
259	70
274	40
292	0
