Mass Spectrum: Benzenamine, 4-chloro-N-(4-pyridinylmethylene)-
Formula: C12H9ClN2
CAS: 55643-84-0
Molecular weight: 216
m/z	intensity
50	579
51	799
52	460
62	100
63	300
64	140
74	160
75	999
76	260
77	140
78	170
79	799
111	879
113	270
138	460
140	150
215	260
216	739
217	170
218	230
