Mass Spectrum: Sulfonium, dimethyl[(4-nitrobenzoyl)amino]-, hydroxide, inner salt
Formula: C9H10N2O3S
CAS: 55649-97-3
Molecular weight: 226
m/z	intensity
14	11
15	9
16	8
17	44
18	177
19	2
27	26
28	4
29	8
30	21
31	1
34	3
35	15
37	8
38	5
39	29
40	5
41	3
43	8
44	2
45	16
46	43
48	3
50	68
51	6
52	7
55	2
58	1
60	4
61	660
62	391
63	72
64	34
69	21
74	18
75	47
76	68
77	16
78	7
79	6
84	1
89	39
90	10
92	43
93	7
102	2
103	7
104	999
105	77
106	45
116	1
118	1
119	1
120	20
122	7
123	2
126	6
131	1
133	6
134	20
148	6
149	2
150	339
151	49
163	7
165	41
166	11
167	5
172	2
179	314
180	48
181	9
182	2
188	2
195	9
196	3
210	214
211	115
212	24
213	3
226	159
227	137
228	14
229	9
230	4
