Mass Spectrum: Dimethyl tartarate [R-(R*,R*)]-, 2TMS derivative
Formula: C12H26O6Si2
CAS: 55659-11-5
Molecular weight: 322
m/z	intensity
41	6
42	9
43	84
44	62
45	362
46	21
47	43
53	6
55	18
56	6
57	21
58	37
59	425
60	34
61	50
66	6
69	15
70	6
71	12
72	34
73	999
74	125
75	212
77	9
85	18
86	6
87	12
88	12
89	625
90	50
91	34
99	12
101	43
102	90
103	175
104	18
105	50
107	9
115	9
116	31
117	25
118	6
119	71
120	9
121	12
129	6
130	43
131	81
132	15
133	100
134	12
135	9
143	34
144	6
145	6
146	25
147	437
148	50
149	31
159	21
161	168
162	18
163	40
164	6
175	50
176	9
177	6
189	9
203	6
204	9
217	40
218	6
219	9
234	143
235	43
236	15
247	59
248	12
249	6
263	21
264	6
307	53
308	15
309	6
