Mass Spectrum: 1-Pentanone, 1-(3-furanyl)-4-hydroxy-
Formula: C9H12O3
CAS: 55659-41-1
Molecular weight: 168
m/z	intensity
41	119
43	204
44	17
45	255
47	27
48	10
52	13
53	57
54	44
55	105
56	25
57	50
58	14
59	12
60	0
61	1
62	4
63	11
64	3
65	17
66	32
67	115
68	80
69	31
70	5
71	14
72	4
73	1
74	2
75	0
77	38
78	22
79	40
80	2
81	85
82	29
83	18
88	5
91	5
93	8
95	999
96	83
97	19
98	1
99	33
100	4
101	0
105	3
106	19
107	58
108	8
110	440
111	47
112	14
113	5
121	4
122	1
123	15
124	51
125	8
126	0
134	1
135	6
139	0
149	2
150	34
151	21
152	2
153	36
154	3
167	0
168	87
169	16
170	0
