Mass Spectrum: Aziridine, 2-methyl-3-(1-methylethyl)-1-(phenylmethyl)-, trans-
Formula: C13H19N
CAS: 55669-81-3
Molecular weight: 189
m/z	intensity
12	0
13	0
14	2
15	30
16	0
17	2
18	11
25	0
26	13
27	105
28	96
29	81
30	21
31	0
35	0
36	0
37	4
38	12
39	124
40	14
41	130
42	106
43	30
44	61
45	0
49	1
50	37
51	80
52	25
53	26
54	29
55	429
56	89
57	10
58	2
59	1
60	0
61	4
62	14
63	49
64	17
65	136
66	10
67	8
68	34
69	20
70	23
71	2
72	0
73	1
74	6
75	6
76	7
77	34
78	11
79	8
80	3
81	17
82	20
83	10
84	7
85	1
86	2
87	2
88	2
89	33
90	22
91	490
92	42
93	1
94	1
96	5
97	2
98	999
99	70
100	2
101	0
102	1
103	5
104	13
105	9
106	4
107	1
108	2
111	0
112	1
113	0
115	3
116	3
117	7
118	4
119	1
125	5
126	8
127	2
128	4
129	1
130	3
131	5
132	6
133	0
134	1
143	0
144	2
145	2
146	14
147	124
148	3
150	0
158	1
159	0
160	13
161	2
162	1
163	0
172	0
173	0
174	21
175	3
188	9
189	59
190	8
191	0
