Mass Spectrum: 1,3-Propanediamine, N'-(4-chlorophenyl)-N,N,2-trimethyl-
Formula: C12H19ClN2
CAS: 55667-51-1
Molecular weight: 226
m/z	intensity
41	21
42	49
43	18
44	42
45	42
46	17
58	999
59	54
70	12
71	15
75	18
77	16
84	46
85	15
86	27
99	29
105	9
111	23
112	8
113	9
127	13
130	11
138	13
139	10
140	56
141	12
142	18
153	16
166	67
168	25
181	23
183	8
226	113
227	26
228	39
229	8
