Mass Spectrum: 1,3-Propanediamine, N,N,N'-trimethyl-N'-phenyl-
Formula: C12H20N2
CAS: 55667-48-6
Molecular weight: 192
m/z	intensity
58	943
70	253
72	69
77	245
78	50
84	176
85	999
86	69
91	126
104	123
105	111
106	92
107	65
120	719
121	111
132	199
134	62
146	341
147	349
192	490
193	69
