Mass Spectrum: 1,3-Propanediamine, N'-(4-methoxyphenyl)-N,N,2-trimethyl-
Formula: C13H22N2O
CAS: 55667-49-7
Molecular weight: 222
m/z	intensity
58	999
84	109
99	60
136	123
162	139
177	49
222	341
223	56
