Mass Spectrum: Benzene, 1-(difluoroisocyanatomethyl)-4-nitro-
Formula: C8H4F2N2O3
CAS: 55669-96-0
Molecular weight: 214
m/z	intensity
14	44
16	63
17	259
18	9
19	30
20	7
25	34
26	176
27	690
28	9
29	51
30	988
31	101
32	1
36	76
37	706
38	700
39	703
40	51
41	33
44	202
46	171
47	431
48	53
49	379
50	984
51	988
52	569
53	44
57	34
60	44
61	202
62	431
63	734
64	532
65	52
69	101
72	49
73	215
74	193
75	988
76	999
77	136
83	61
85	516
86	54
87	58
88	123
89	70
90	988
92	202
94	51
95	108
98	31
99	202
100	171
101	127
102	987
103	539
104	44
105	50
107	38
113	456
114	708
118	472
119	44
120	133
123	68
125	886
126	206
128	76
132	82
137	39
140	89
141	33
142	31
145	30
148	987
149	209
150	32
156	67
168	263
169	78
172	244
184	89
195	44
198	20
214	493
215	40
