Mass Spectrum: 1-Aziridinepropanoic acid, 2-methyl-3-(1-methylethyl)-, ethyl ester, trans-
Formula: C11H21NO2
CAS: 55669-86-8
Molecular weight: 199
m/z	intensity
12	3
13	5
14	33
15	178
16	7
17	12
18	57
19	7
25	3
26	80
27	602
28	630
29	781
30	109
31	54
32	5
37	5
38	12
39	191
40	36
41	492
42	376
43	161
44	130
45	68
46	4
50	4
51	10
52	27
53	81
54	171
55	999
56	940
57	102
58	32
59	58
60	10
61	4
62	1
63	3
64	2
65	9
66	8
67	42
68	229
69	171
70	235
71	70
72	65
73	195
74	21
75	4
77	3
78	1
79	5
80	23
81	35
82	124
83	110
84	231
85	19
86	29
87	2
88	2
92	2
93	3
94	18
95	7
96	241
97	29
98	954
99	86
100	16
101	59
102	12
108	4
109	2
110	32
111	11
112	705
113	59
114	63
115	4
116	6
124	3
126	178
127	20
128	14
130	9
138	4
140	2
142	20
143	12
144	13
154	83
155	10
156	107
157	14
158	4
170	159
171	26
172	3
183	3
184	747
185	85
186	7
198	20
199	247
200	32
201	2
