Mass Spectrum: 1,3-Propanediamine, N,N,2-trimethyl-N'-(4-nitrophenyl)-
Formula: C12H19N3O2
CAS: 55667-52-2
Molecular weight: 237
m/z	intensity
41	18
42	33
43	17
44	32
45	21
46	21
55	12
56	10
57	18
58	999
59	43
65	9
70	13
71	17
76	18
77	12
78	9
84	23
85	9
86	21
99	8
104	16
105	38
130	10
133	8
151	17
177	41
192	11
237	110
238	18
