Mass Spectrum: Aziridine, 2-(1,1-dimethylethyl)-3-methyl-1-(2-propenyl)-, trans-
Formula: C10H19N
CAS: 55669-80-2
Molecular weight: 153
m/z	intensity
12	2
13	3
14	15
15	148
16	5
17	19
18	81
25	2
26	57
27	373
28	362
29	332
30	59
31	1
36	1
37	11
38	29
39	407
40	55
41	999
42	344
43	129
44	806
45	21
49	5
50	9
51	22
52	16
53	71
54	74
55	294
56	187
57	77
58	18
61	1
62	1
63	4
64	2
65	9
66	6
67	43
68	70
69	460
70	163
71	18
72	2
75	9
76	1
77	8
78	2
79	8
80	18
81	24
82	135
83	34
84	47
85	6
86	4
89	2
91	2
93	4
94	13
95	15
96	140
97	81
98	224
99	16
100	35
108	4
109	2
110	64
111	29
112	489
113	47
114	2
115	1
122	4
123	2
124	7
125	4
126	6
127	2
136	1
138	142
139	15
140	1
152	7
153	3
154	1
