Mass Spectrum: Propane, 1,1-difluoro-1-isocyanato-
Formula: C4H5F2NO
CAS: 55669-94-8
Molecular weight: 121
m/z	intensity
12	33
15	95
25	45
26	239
27	591
28	220
29	107
31	88
32	6
33	76
38	45
39	71
40	47
42	73
44	533
45	98
46	83
47	147
50	45
51	436
52	114
53	64
54	146
55	69
56	109
57	338
58	36
59	295
64	73
72	42
73	80
74	143
75	47
77	219
78	329
79	802
80	47
92	999
93	46
100	80
101	102
102	84
103	4
121	1
