Mass Spectrum: Aziridine, 2-methyl-3-(1-methylethyl)-1-(2-propenyl)-, trans-
Formula: C9H17N
CAS: 55669-77-7
Molecular weight: 139
m/z	intensity
12	1
13	3
14	14
15	135
16	3
17	2
18	21
25	2
26	65
27	379
28	352
29	216
30	72
31	1
37	12
38	34
39	447
40	61
41	809
42	576
43	100
44	181
45	5
50	7
51	16
52	16
53	57
54	87
55	999
56	332
57	38
58	14
62	1
63	2
64	2
65	8
66	6
67	36
68	120
69	84
70	74
71	12
72	2
77	5
78	3
79	14
80	16
81	88
82	78
83	41
84	59
85	4
91	1
92	1
93	6
94	11
95	7
96	100
97	45
98	821
99	57
100	5
108	6
109	2
110	19
111	6
112	6
113	1
122	3
124	142
125	13
126	3
138	10
139	6
140	2
