Mass Spectrum: 1,3-Dioxolane, 2-heptyl-4-phenyl-
Formula: C16H24O2
CAS: 55668-40-1
Molecular weight: 248
m/z	intensity
25	1
26	18
27	134
28	15
29	70
30	4
31	18
35	247
36	5
37	68
38	16
39	125
40	22
41	242
42	79
43	158
44	69
45	24
46	1
47	264
48	4
49	256
50	24
51	66
52	15
53	18
54	14
55	98
56	66
57	84
58	19
59	4
60	43
61	9
62	12
63	29
64	9
65	71
66	10
67	36
68	31
69	46
70	11
71	45
72	6
73	21
74	6
75	4
76	4
77	67
78	26
79	46
80	4
81	24
82	26
83	9
84	999
85	18
86	613
87	6
88	100
89	23
90	13
91	266
92	63
93	11
94	1
95	10
96	2
97	2
98	1
99	4
100	5
101	4
102	5
103	102
104	31
105	23
106	3
107	13
108	1
109	3
110	6
111	1
113	1
115	2
116	1
117	7
118	4
119	13
120	30
121	259
122	28
123	3
125	1
126	0
127	4
128	0
129	1
131	1
132	0
133	2
134	0
146	1
147	1
148	1
149	161
150	14
151	1
