Mass Spectrum: 5-Decen-3-yne, 2,2-dimethyl-, (Z)-
Formula: C12H20
CAS: 55669-91-5
Molecular weight: 164
m/z	intensity
12	1
13	2
14	10
15	103
16	2
17	2
18	8
26	25
27	458
28	46
29	306
30	6
37	7
38	24
39	368
40	46
41	579
42	30
43	330
44	12
45	2
49	2
50	42
51	145
52	55
53	166
54	30
55	237
56	24
57	248
58	14
61	9
62	38
63	131
64	40
65	213
66	63
67	129
68	16
69	113
70	11
71	6
72	1
73	3
74	25
75	33
76	18
77	425
78	118
79	401
80	58
81	90
82	20
83	22
84	2
85	3
86	7
87	9
88	3
89	31
90	16
91	550
92	87
93	999
94	153
95	90
96	18
97	2
98	3
99	2
100	1
101	4
102	10
103	53
104	25
105	256
106	97
107	839
108	121
109	20
110	5
115	19
116	6
117	17
118	4
119	58
120	29
121	302
122	42
123	6
127	1
128	3
129	1
131	2
133	7
134	7
135	113
136	16
137	2
147	2
148	2
149	251
150	30
151	2
163	1
164	481
165	63
166	4
