Mass Spectrum: 1-Butanol, 2-methylene-, acetate
Formula: C7H12O2
CAS: 55670-09-2
Molecular weight: 128
m/z	intensity
12	4
13	12
14	47
15	201
16	3
17	2
18	9
24	0
25	3
26	28
27	169
28	46
29	136
30	6
31	21
32	0
36	1
37	10
38	25
39	169
40	68
41	185
42	69
43	999
44	41
45	44
46	2
47	1
49	1
50	11
51	16
52	9
53	106
54	15
55	34
56	10
57	55
58	12
59	7
60	1
61	27
62	2
63	2
64	0
65	6
66	17
67	160
68	153
69	27
70	6
71	115
72	8
73	221
74	19
75	8
77	0
79	0
81	0
82	1
83	3
84	2
85	24
86	251
87	14
88	2
95	0
97	1
99	1
100	0
106	1
113	0
128	2
