Mass Spectrum: 2H-1,2,4-Benzothiadiazine-7-sulfonamide, 6-chloro-3,4-dihydro-N,N,2,4-tetramethyl-, 1,1-dioxide
Formula: C11H16ClN3O4S2
CAS: 55670-20-7
Molecular weight: 353
m/z	intensity
36	17
37	21
38	21
39	47
40	26
41	71
42	999
43	241
44	684
45	45
46	19
47	12
48	19
49	17
50	28
51	68
58	14
61	17
62	116
63	85
64	45
65	28
66	59
72	17
73	68
74	66
75	238
76	97
77	80
78	47
83	14
85	12
87	19
88	85
89	50
90	45
91	73
92	59
93	12
95	12
96	19
97	205
98	19
99	116
100	31
101	21
102	196
103	118
104	87
105	45
106	14
107	31
108	33
109	28
110	64
111	97
112	73
113	24
114	19
117	54
118	45
119	17
120	26
122	64
123	28
124	66
125	38
126	83
127	64
128	66
130	12
131	59
132	26
133	19
136	24
137	47
138	578
139	318
140	238
141	153
142	33
143	31
144	35
145	64
146	47
147	38
150	24
152	24
153	33
154	245
155	47
156	90
157	45
158	26
160	24
161	28
163	28
166	50
167	21
168	57
169	26
170	28
171	31
177	21
179	14
180	92
181	61
182	47
183	19
184	35
185	21
186	38
187	19
199	26
202	300
203	309
204	205
205	149
206	33
208	24
211	31
218	377
219	40
220	149
244	26
245	83
246	47
247	33
248	28
250	47
252	17
261	45
262	14
263	21
266	101
267	54
268	47
269	21
288	245
289	35
290	101
291	14
310	502
311	78
312	205
313	28
314	14
322	12
352	73
353	481
354	106
355	231
356	35
357	17
