Mass Spectrum: Stannane, bromodibutyl(1-methylethyl)-
Formula: C11H25BrSn
CAS: 55670-18-3
Molecular weight: 356
m/z	intensity
15	40
18	10
26	50
27	660
28	140
29	990
30	30
31	10
37	10
38	20
39	310
40	40
41	999
42	60
43	710
44	30
45	50
50	5
51	10
53	30
54	5
55	60
56	20
57	640
58	40
113	20
115	10
116	60
117	210
118	240
119	310
120	230
121	360
122	20
123	40
124	30
125	40
130	5
131	20
132	20
133	30
134	20
135	40
137	5
138	5
143	10
144	5
145	30
146	20
147	30
148	10
149	30
151	10
153	10
154	5
155	20
157	10
159	20
160	5
161	40
162	20
163	50
164	20
165	40
167	10
169	30
171	20
172	10
173	270
174	160
175	440
176	180
177	540
178	40
179	100
180	5
181	110
182	5
191	20
193	20
194	5
195	200
196	100
197	500
198	220
199	710
200	110
201	500
203	150
205	80
211	20
212	10
213	20
217	20
218	10
219	30
220	20
221	30
223	5
225	10
227	10
228	5
229	10
231	5
232	5
233	5
234	5
238	5
239	10
240	20
241	20
242	20
243	30
244	20
245	20
249	5
251	20
252	10
253	40
254	60
255	210
256	110
257	270
258	60
259	180
260	20
261	50
262	5
263	30
267	10
269	20
271	5
273	20
274	10
275	40
276	20
277	50
278	5
279	5
281	10
291	5
293	5
295	40
296	20
297	100
298	50
299	150
300	30
301	90
302	5
303	30
305	30
307	20
308	5
309	180
310	100
311	450
312	220
313	660
314	150
315	450
316	40
317	130
318	10
319	70
320	5
