Mass Spectrum: Bicyclo[2.2.1]heptan-2-ol, 1-methyl-, acetate
Formula: C10H16O2
CAS: 55679-39-5
Molecular weight: 168
m/z	intensity
27	44
29	49
31	4
39	67
40	14
41	110
42	20
43	713
44	23
45	9
51	11
52	7
53	49
54	16
55	90
56	14
57	16
58	22
59	25
65	18
66	96
67	159
68	27
69	19
70	15
71	40
72	32
77	38
78	13
79	121
80	675
81	864
82	73
83	43
84	27
85	10
86	5
87	6
91	37
92	9
93	283
94	73
95	25
96	9
97	55
98	22
105	5
107	36
108	999
109	130
110	29
111	72
112	12
124	6
125	43
126	79
127	9
