Mass Spectrum: Silane, (2-ethoxycyclohexyl)trimethyl-, cis-
Formula: C11H24OSi
CAS: 55670-10-5
Molecular weight: 200
m/z	intensity
12	0
13	0
14	2
15	23
16	0
17	0
18	1
19	1
24	0
25	0
26	5
27	75
28	24
29	138
30	5
31	37
32	1
33	0
35	0
37	0
38	1
39	34
40	5
41	68
42	15
43	99
44	36
45	174
46	11
47	37
48	1
49	1
50	1
51	4
52	88
53	60
54	183
55	80
56	10
57	130
58	44
59	216
60	23
61	66
62	4
63	3
64	0
65	8
66	12
67	414
68	26
69	23
70	20
71	17
72	38
73	914
74	82
75	332
76	24
77	25
78	4
79	30
80	11
81	113
82	562
83	48
84	3
85	42
86	3
87	10
88	2
89	8
90	1
91	18
92	1
93	2
94	1
95	4
96	1
97	10
98	12
99	13
100	2
101	7
102	4
103	999
104	95
105	40
106	2
107	0
109	1
110	0
111	5
112	1
113	25
114	2
115	2
116	0
117	20
118	2
119	142
120	24
121	9
122	0
123	0
124	0
125	2
126	3
127	4
128	0
129	474
130	5
131	2
133	0
135	3
136	0
137	1
139	4
140	0
141	2
142	1
143	3
144	1
145	0
147	0
150	0
152	0
154	0
155	2
156	0
157	32
158	4
159	1
164	1
166	1
168	0
169	0
170	0
171	17
172	2
173	0
185	11
186	1
187	0
200	0
201	0
