Mass Spectrum: 1-Pentene, 1-bromo-1-chloro-
Formula: C5H8BrCl
CAS: 55683-03-9
Molecular weight: 182
m/z	intensity
12	8
13	8
14	20
15	98
16	3
18	3
24	2
25	18
26	96
27	377
28	47
29	183
30	4
31	9
32	3
35	9
36	15
37	69
38	123
39	472
40	57
41	273
42	999
43	87
44	13
45	93
46	2
47	23
51	158
52	25
53	41
54	3
55	27
56	2
57	4
58	1
59	3
60	50
61	93
62	44
63	26
64	8
65	79
66	20
67	181
68	11
69	3
70	3
71	24
72	21
73	169
74	33
75	168
76	15
77	38
78	2
79	43
80	11
81	43
82	11
83	2
84	4
85	9
86	7
87	35
88	12
89	13
90	5
91	8
92	2
93	26
94	2
95	19
96	1
97	2
99	3
100	2
101	4
102	9
103	94
104	16
105	36
106	13
107	10
108	2
109	3
115	2
116	3
117	23
118	6
119	27
120	17
121	5
122	14
126	7
127	44
128	1
129	58
130	4
131	22
132	1
133	8
135	2
139	2
140	238
141	35
142	353
143	43
144	74
145	10
147	2
149	2
151	3
153	433
154	30
155	556
156	37
157	134
158	9
166	1
167	9
168	2
169	10
171	3
182	164
183	10
184	212
185	12
186	51
187	3
