Mass Spectrum: 4,22-Cholestadien-3-one
Formula: C27H42O
CAS: 55688-43-2
Molecular weight: 382
m/z	intensity
41	448
42	40
43	694
44	22
45	3
51	10
52	7
53	120
54	23
55	999
56	55
57	148
58	6
63	2
65	56
66	26
67	437
68	70
69	703
70	104
71	59
72	3
77	163
78	34
79	363
80	52
81	357
82	143
83	337
84	33
85	11
86	2
87	2
91	315
92	46
93	275
94	77
95	320
96	95
97	147
98	14
99	6
102	3
103	22
104	15
105	224
106	44
107	210
108	70
109	268
110	38
111	31
112	3
113	7
115	30
116	15
117	71
118	22
119	138
120	41
121	188
122	92
123	204
124	176
125	57
126	8
127	8
128	25
129	39
130	17
131	99
132	28
133	166
134	63
135	133
136	50
137	82
138	20
139	5
141	16
142	15
143	43
144	19
145	120
146	47
147	256
148	92
149	204
150	30
151	16
152	36
153	8
154	4
155	21
156	11
157	51
158	17
159	94
160	9
161	155
162	36
163	66
164	10
165	9
166	10
167	5
168	3
169	16
170	8
171	46
172	26
173	83
174	53
175	128
176	35
177	54
178	8
179	3
181	5
182	3
183	19
184	8
185	42
186	15
187	56
188	18
189	37
190	8
191	8
192	5
195	5
196	3
197	26
198	9
199	30
200	12
201	48
202	13
203	49
204	8
205	3
209	11
210	4
211	25
212	11
213	42
214	12
215	48
216	11
217	24
218	5
219	3
220	4
223	5
224	4
225	27
226	10
227	97
228	32
229	138
230	36
231	79
232	13
237	6
238	6
239	10
240	3
241	22
242	18
243	82
244	38
245	316
246	58
247	6
251	10
252	16
253	180
254	44
255	43
256	117
257	93
258	17
259	7
265	8
266	3
267	7
268	134
269	494
270	317
271	406
272	94
273	23
274	4
279	5
280	22
281	44
282	10
283	157
284	47
285	31
286	7
295	4
296	4
297	162
298	550
299	185
300	29
301	4
307	2
309	3
310	3
311	15
312	86
313	52
314	14
315	3
325	8
326	6
327	12
328	3
335	36
336	9
337	2
352	9
353	141
354	43
355	6
378	2
379	3
381	13
382	36
383	9
