Mass Spectrum: Azetidine, 1,3-dimethyl-
Formula: C5H11N
CAS: 55683-38-0
Molecular weight: 85
m/z	intensity
12	3
13	8
14	43
15	253
16	7
17	3
18	19
19	1
25	2
26	29
27	150
28	109
29	63
30	16
31	64
32	20
36	1
37	11
38	24
39	133
40	39
41	164
42	999
43	752
44	199
45	25
49	1
50	7
51	8
52	7
53	5
54	10
55	17
56	13
57	28
58	5
59	27
60	1
64	1
65	1
66	2
67	3
68	18
69	5
70	21
71	1
73	1
74	14
75	1
80	1
82	5
83	4
84	34
85	217
86	13
