Mass Spectrum: Benzeneacetic acid, 3,4-bis(2,2,3,3,3-pentafluoro-1-oxopropoxy)-, methyl ester
Formula: C15H8F10O6
CAS: 55683-24-4
Molecular weight: 474
m/z	intensity
40	17
43	35
44	78
45	58
50	52
51	104
52	9
53	18
59	999
60	25
61	16
62	11
63	36
64	39
65	259
66	23
67	12
69	295
76	13
77	182
78	22
79	15
80	9
81	16
91	21
92	24
93	46
94	9
95	11
97	13
100	65
101	7
105	166
106	20
107	15
108	22
109	35
119	545
120	22
121	10
124	11
127	7
133	90
134	8
147	36
149	95
150	8
183	20
211	8
212	32
252	369
253	36
261	11
266	9
267	17
283	73
284	10
285	14
295	12
311	80
312	10
349	8
367	22
377	8
387	165
388	20
395	32
415	300
416	44
474	229
475	40
476	8
