Mass Spectrum: Methyl 3-hydroxytetradecanoate
Formula: C15H30O3
CAS: 55682-83-2
Molecular weight: 258
m/z	intensity
25	1
26	2
27	64
28	15
29	183
30	6
31	26
33	29
34	0
35	0
36	0
37	1
38	5
39	40
41	294
42	101
43	636
44	57
45	19
46	0
48	0
49	0
51	0
52	0
53	18
54	33
55	228
56	74
57	180
58	27
59	100
61	177
62	3
63	1
64	0
65	5
66	5
67	62
68	42
69	133
70	52
71	344
72	18
73	36
74	349
75	98
76	5
77	4
78	3
79	14
80	7
81	61
82	48
83	87
84	60
85	51
86	10
87	50
88	10
89	0
90	1
91	4
92	0
93	4
94	8
95	39
96	68
97	80
98	43
99	11
100	11
101	65
102	6
103	999
104	67
105	12
106	1
107	2
108	5
109	23
110	29
111	39
112	11
113	17
114	21
115	12
116	38
117	12
122	2
123	17
124	26
125	13
126	5
127	13
128	11
129	16
130	1
136	1
137	8
138	8
139	4
140	4
141	13
142	4
143	10
144	2
156	0
157	6
158	1
159	0
161	1
162	0
163	1
164	8
165	6
166	31
167	8
168	0
181	0
183	10
184	1
185	3
186	1
208	16
209	7
