Mass Spectrum: Cyclopropane, 1-bromo-2-(1,1-dimethylethyl)-
Formula: C7H13Br
CAS: 55682-99-0
Molecular weight: 176
m/z	intensity
12	1
13	4
14	13
15	95
16	2
17	0
18	2
25	2
26	28
27	224
28	29
29	129
30	3
31	0
36	1
37	12
38	33
39	263
40	42
41	281
42	110
43	67
44	2
45	1
50	34
51	54
52	20
53	116
54	29
55	744
56	41
57	73
58	3
60	0
61	4
62	8
63	17
64	3
65	30
66	16
67	65
68	6
69	78
70	999
71	55
72	1
73	1
74	2
75	1
76	0
77	16
78	4
79	31
80	11
81	98
82	26
83	6
85	1
91	1
92	3
93	11
94	3
95	10
96	0
97	56
98	4
104	0
105	2
106	5
107	19
108	4
109	17
117	1
119	20
120	1
121	19
122	0
123	1
132	0
133	13
134	3
135	13
136	3
161	8
162	0
163	8
164	0
