Mass Spectrum: 3-(1,1-Dimethylallyl)scopoletin, TMS derivative
Formula: C18H24O4Si
CAS: 55682-68-3
Molecular weight: 332
m/z	intensity
28	100
29	20
30	10
31	10
32	10
38	10
39	50
40	10
41	170
42	10
43	70
44	30
45	190
46	10
47	10
50	10
51	30
52	10
53	30
54	10
55	20
56	10
57	20
58	20
59	90
60	10
61	20
62	10
63	20
65	20
67	20
69	40
70	10
71	10
72	10
73	999
74	90
75	130
76	20
77	50
78	30
79	20
81	10
83	10
85	10
87	10
88	10
89	40
90	10
91	40
92	10
93	10
94	10
99	20
101	10
102	60
103	20
105	10
107	10
108	10
109	10
113	10
114	10
115	60
116	30
117	20
118	10
119	20
120	10
121	20
122	60
123	20
127	70
128	40
129	60
130	20
131	20
132	10
133	10
134	10
135	40
136	50
137	50
139	10
141	30
142	10
143	20
144	10
145	20
146	10
147	60
148	10
149	30
150	10
151	40
152	10
153	10
155	10
157	30
165	10
167	10
169	10
171	10
173	20
174	10
175	10
176	10
177	20
185	20
186	20
187	20
189	20
191	10
193	10
195	10
197	40
198	10
199	20
200	10
201	20
202	10
203	30
204	20
205	20
206	20
207	20
209	10
211	10
212	10
213	20
214	10
215	20
216	60
217	30
218	10
219	40
220	10
221	40
225	10
227	10
228	10
229	30
230	30
231	40
232	40
233	30
234	20
235	10
240	10
241	10
242	20
243	30
244	20
245	20
246	20
247	50
248	10
249	20
250	10
255	10
256	10
257	30
258	40
259	100
260	30
261	30
262	10
263	20
269	10
271	10
272	10
273	50
274	50
275	20
276	10
277	200
278	40
279	10
281	20
282	10
283	10
285	10
286	10
287	60
288	10
289	570
290	140
291	80
292	10
299	20
300	10
301	20
302	80
303	50
304	50
305	90
306	20
315	20
316	10
317	770
318	190
319	50
320	10
322	20
323	10
331	10
332	800
333	200
334	60
335	10
