Mass Spectrum: Ethanone, 2-[1,5-dihydro-5-hydroxy-1-(4-nitrophenyl)-5-phenyl-4H-1,2,3-triazol-4-ylidene]-1-phenyl-
Formula: C22H16N4O4
CAS: 55682-70-7
Molecular weight: 400
m/z	intensity
26	73
27	67
28	54
37	69
38	94
39	210
41	29
49	69
50	515
51	568
52	294
53	33
61	21
62	29
63	168
64	33
65	40
73	29
74	126
75	115
76	160
77	880
78	160
79	126
89	46
90	29
91	29
92	29
102	35
103	54
104	18
105	999
106	75
122	172
131	23
143	52
150	63
189	33
221	128
222	16
235	16
251	27
267	680
268	105
295	12
342	8
372	65
373	16
400	3
