Mass Spectrum: 4'-Hydroxymethaqualone, TMS derivative
Formula: C19H22N2O2Si
CAS: 55683-27-7
Molecular weight: 338
m/z	intensity
42	82
43	126
44	176
45	235
46	14
47	40
50	83
51	58
52	33
53	19
54	6
55	24
56	14
57	22
58	30
59	61
60	8
61	20
62	8
63	57
64	29
65	30
66	6
67	22
68	32
69	19
71	11
72	24
73	999
74	112
75	185
76	190
77	199
78	65
79	24
81	10
82	18
83	39
84	12
85	35
86	8
89	89
90	69
91	42
92	21
93	13
95	24
97	12
99	8
100	8
102	72
103	34
104	31
105	55
106	8
107	16
109	18
115	13
116	70
117	48
118	21
119	18
120	14
121	12
130	12
131	9
132	14
133	14
135	53
136	6
139	14
140	14
143	268
144	54
145	14
146	11
147	22
148	9
149	33
153	26
154	194
163	40
164	12
165	9
176	9
177	10
178	10
179	18
180	8
181	14
190	9
193	8
195	6
197	25
204	9
205	8
206	11
207	9
217	10
218	5
219	8
220	16
221	11
247	7
248	4
249	10
259	6
265	16
279	8
295	6
296	5
305	8
306	9
307	30
308	6
309	5
321	304
322	86
323	753
324	194
325	54
338	358
339	106
340	24
