Mass Spectrum: 1-Pentene, 1-bromo-1-iodo-
Formula: C5H8BrI
CAS: 55683-02-8
Molecular weight: 274
m/z	intensity
12	8
13	8
14	20
15	97
16	3
17	10
18	34
19	3
24	2
25	13
26	95
27	510
28	56
29	202
30	5
31	7
32	0
36	8
37	84
38	198
39	999
40	100
41	601
42	110
43	139
44	18
45	125
46	3
48	1
49	14
50	65
51	97
52	39
53	92
54	10
55	77
56	24
57	52
58	4
59	2
60	6
61	25
62	31
63	43
64	11
65	105
66	53
67	607
68	96
69	36
70	27
71	45
72	8
73	15
74	1
75	2
77	6
78	2
79	33
80	10
81	35
82	11
83	7
84	2
85	15
86	2
87	2
91	10
92	3
93	19
94	3
95	16
96	4
97	13
98	3
99	10
103	3
104	21
105	88
106	23
107	93
108	3
109	15
110	3
111	21
112	6
113	1
114	2
115	2
116	5
117	52
118	62
119	161
120	59
121	109
122	4
123	7
125	1
127	299
128	33
129	2
130	2
131	7
132	7
133	12
134	7
135	2
136	1
138	7
139	14
140	4
141	12
143	1
145	2
146	7
147	40
148	9
149	39
150	2
151	2
152	51
153	16
154	5
155	3
156	2
161	2
163	1
164	6
165	34
166	14
167	17
168	1
174	3
175	14
176	4
177	3
179	4
191	2
195	2
196	4
199	1
206	8
207	8
208	8
209	1
218	4
219	3
220	4
221	3
228	2
230	2
231	5
232	577
233	19
234	559
235	15
245	348
246	13
247	338
248	13
249	3
259	1
261	1
274	410
275	24
276	398
277	22
