Mass Spectrum: Cyclohexane, 1,1',1''-(1-ethanyl-2-ylidene)tris-
Formula: C20H36
CAS: 55682-86-5
Molecular weight: 276
m/z	intensity
13	0
14	25
15	8
16	1
25	0
26	4
27	83
28	59
29	139
30	5
37	3
38	8
39	94
40	21
41	637
42	41
43	78
44	22
48	0
49	2
50	2
51	8
52	7
53	70
54	109
55	999
56	54
57	18
58	12
59	2
60	0
61	1
62	1
63	4
64	4
65	20
66	18
67	299
68	67
69	257
70	17
71	5
72	2
73	2
74	1
75	2
76	2
77	31
78	14
79	62
80	26
81	218
82	223
83	735
84	50
85	3
86	2
91	26
92	5
93	17
94	12
95	89
96	233
97	622
98	50
99	2
101	2
102	1
103	2
104	3
105	5
106	1
107	6
108	17
109	114
110	67
111	224
112	20
113	1
115	4
116	2
117	2
118	1
119	1
120	0
121	9
122	4
123	41
124	11
125	12
126	2
127	2
128	6
129	4
130	2
131	3
132	0
133	0
135	5
136	2
137	30
138	4
139	0
141	1
142	0
143	0
144	0
149	2
150	1
151	8
152	1
153	0
155	0
156	0
158	0
163	1
164	3
165	2
172	1
173	0
174	1
178	9
179	34
180	5
186	0
187	0
191	1
192	355
193	373
194	52
195	3
207	3
208	2
209	0
214	1
227	0
228	2
229	8
230	1
276	4
277	0
