Mass Spectrum: Silane, trimethyl[(2,2',5,5'-tetrachloro[1,1'-biphenyl]-4-yl)oxy]-
Formula: C15H14Cl4OSi
CAS: 55683-18-6
Molecular weight: 378
m/z	intensity
43	212
63	91
65	144
73	498
74	59
75	59
78	52
79	52
93	999
94	73
95	350
147	69
182	67
183	50
207	140
209	70
328	47
363	257
365	345
367	174
369	50
378	147
380	185
382	86
