Mass Spectrum: 2'-Hydroxymethaqualone, TMS derivative
Formula: C19H22N2O2Si
CAS: 55683-29-9
Molecular weight: 338
m/z	intensity
41	16
42	26
43	91
44	71
45	263
47	55
50	91
51	97
52	10
57	10
59	39
61	16
63	65
64	32
65	29
72	39
73	999
74	97
75	328
76	263
77	396
78	62
85	10
89	218
90	104
91	91
92	16
101	10
102	107
103	75
104	120
105	55
115	13
116	140
117	62
118	36
119	13
128	39
129	13
130	117
131	16
132	75
133	16
135	13
138	13
139	221
143	224
144	75
145	13
146	55
147	32
148	19
151	32
152	52
154	140
163	29
165	19
166	10
177	45
179	494
180	130
181	13
192	10
202	13
204	13
205	39
206	36
207	16
217	13
219	97
220	19
221	19
231	218
232	52
233	211
234	101
235	286
236	39
247	661
248	247
249	201
250	19
265	10
296	10
323	551
324	114
325	23
338	697
339	175
340	29
