Mass Spectrum: Decanoic acid, 2-oxo-, methyl ester
Formula: C11H20O3
CAS: 55683-30-2
Molecular weight: 200
m/z	intensity
38	10
39	200
40	30
41	600
42	250
43	890
44	40
45	10
53	50
54	20
55	410
56	180
57	999
58	110
59	310
67	70
68	20
69	340
70	50
71	50
74	330
75	20
81	10
82	40
83	50
84	550
85	70
86	10
88	60
97	150
98	70
101	200
109	30
111	20
112	50
116	560
117	100
125	10
126	20
127	210
128	20
129	160
130	30
144	10
158	20
