Mass Spectrum: 2-Decanol, propanoate
Formula: C13H26O2
CAS: 55683-11-9
Molecular weight: 214
m/z	intensity
31	11
41	220
42	78
43	214
44	19
45	17
46	0
47	0
55	173
56	129
57	999
58	40
59	8
60	1
61	0
67	20
68	18
69	88
70	83
71	58
72	29
73	12
74	9
75	49
81	8
82	13
83	43
84	47
85	48
86	4
87	3
88	0
89	0
95	3
96	7
97	42
98	29
99	13
100	3
101	60
102	3
103	0
109	1
110	3
111	27
112	16
113	7
114	2
115	31
116	5
117	0
123	0
124	0
125	2
126	1
127	5
128	1
129	24
130	3
131	0
139	0
140	58
141	16
142	2
143	17
144	3
145	0
153	0
154	0
155	0
156	1
157	16
158	2
159	0
167	0
168	0
169	0
170	1
171	5
172	1
173	0
182	0
183	0
184	0
185	3
186	0
187	0
196	0
197	0
198	0
199	0
