Mass Spectrum: 5H-1,4-Dioxepin, 2,3-dihydro-2,5-dimethyl-
Formula: C7H12O2
CAS: 55683-35-7
Molecular weight: 128
m/z	intensity
12	5
13	15
14	80
15	281
16	7
17	2
18	8
19	13
25	8
26	114
27	501
28	200
29	452
30	45
31	244
32	2
36	1
37	21
38	52
39	592
40	82
41	662
42	554
43	999
44	38
45	93
46	2
47	1
49	2
50	16
51	26
52	17
53	128
54	103
55	157
56	20
57	94
58	102
59	113
60	4
61	1
65	2
67	32
68	11
69	319
70	67
71	299
72	13
73	142
74	5
79	3
80	2
81	4
82	1
83	150
84	21
85	42
86	13
87	163
88	5
95	1
97	8
98	2
99	3
100	3
101	74
102	4
113	460
114	30
115	3
127	34
128	157
129	1
