Mass Spectrum: 1-Hexene, 1-bromo-1-chloro-
Formula: C6H10BrCl
CAS: 55683-01-7
Molecular weight: 196
m/z	intensity
12	4
13	4
14	13
15	66
16	2
17	1
18	5
24	1
25	8
26	67
27	498
28	95
29	143
30	3
31	2
32	2
35	6
36	9
37	34
38	69
39	311
40	37
41	542
42	60
43	667
44	27
45	24
47	13
48	4
49	31
50	47
51	138
52	27
53	71
54	24
55	248
56	999
57	52
58	3
59	2
60	35
61	51
62	28
63	38
64	6
65	37
66	9
67	12
68	4
69	70
70	13
71	7
72	12
73	96
74	22
75	144
76	10
77	50
78	5
79	27
80	9
81	422
82	31
83	6
84	6
85	8
86	7
87	50
88	21
89	30
90	10
91	8
92	2
93	15
94	1
95	12
96	1
97	7
98	1
99	4
100	4
101	5
102	2
103	2
104	7
105	7
106	8
107	10
108	1
109	3
110	1
111	5
112	1
115	1
116	5
117	22
118	4
119	24
120	3
121	8
122	2
123	2
125	1
126	4
127	19
128	5
129	26
130	2
131	17
132	1
133	11
134	6
135	1
136	5
139	2
140	33
141	6
142	41
143	6
144	10
145	2
151	2
153	135
154	22
155	173
156	28
157	42
158	7
166	1
167	8
168	3
169	10
170	2
171	2
196	95
197	6
198	122
199	8
200	29
201	2
