Mass Spectrum: Phenylmethanediol dipropanoate
Formula: C13H16O4
CAS: 55696-47-4
Molecular weight: 236
m/z	intensity
39	20
44	20
50	29
51	59
52	19
56	20
57	999
58	30
74	19
77	180
78	40
79	29
105	460
106	118
107	60
120	19
162	9
163	49
179	60
180	19
