Mass Spectrum: cis-2H-Pyran, Tetrahydro-2,6-diphenyl-
Formula: C17H18O
CAS: 55696-67-8
Molecular weight: 238
m/z	intensity
39	23
50	14
51	53
52	16
53	8
63	12
64	6
65	26
66	13
74	4
75	6
76	8
77	108
78	83
79	23
80	4
89	20
90	10
91	87
92	10
101	4
102	16
103	77
104	999
105	147
106	10
107	10
115	43
116	17
117	53
118	17
119	6
120	17
121	4
127	6
128	17
129	16
130	8
131	19
132	90
133	13
146	10
147	19
148	6
149	4
160	26
161	6
211	4
220	10
238	227
239	40
240	10
