Mass Spectrum: Octahydronaphthalen-4a-ol
Formula: C10H18O
CAS: 55693-34-0
Molecular weight: 154
m/z	intensity
31	39
38	3
39	234
40	49
41	461
42	97
43	234
44	11
45	13
50	5
51	27
52	17
53	120
54	64
55	445
56	47
57	57
58	30
59	4
63	7
64	1
65	39
66	27
67	206
68	46
69	132
70	155
71	33
72	4
77	74
78	17
79	99
80	29
81	88
82	29
83	251
84	57
85	16
91	44
92	5
93	128
94	27
95	49
96	24
97	303
98	570
99	35
103	2
105	5
107	24
108	8
109	13
110	8
111	999
112	84
113	9
114	1
121	7
123	1
124	1
125	30
126	4
134	1
135	15
136	29
137	24
138	18
139	1
152	4
153	5
154	397
155	44
156	3
