Mass Spectrum: 1,1-Dibromo-2,3,4,5-tetraphenylstannole
Formula: C28H20Br2Sn
CAS: 55690-98-7
Molecular weight: 634
m/z	intensity
35	6
37	35
38	40
39	61
40	9
41	6
43	18
44	7
50	341
51	621
53	3
61	8
62	11
63	18
65	7
74	105
75	53
77	999
78	133
79	80
80	43
81	81
82	30
85	3
87	38
88	8
89	15
91	14
98	6
99	7
100	5
102	26
103	8
112	14
113	9
115	61
116	38
117	25
118	57
119	29
120	71
121	5
122	10
124	16
126	47
127	9
128	12
131	5
137	9
138	21
139	38
141	8
142	5
143	12
144	7
145	14
147	3
149	6
150	25
151	58
152	85
153	17
154	8
156	108
158	108
162	6
163	13
165	31
166	5
167	5
169	13
170	8
174	5
176	105
178	365
179	41
189	11
191	5
193	8
195	45
197	115
198	32
199	135
200	23
201	85
203	32
205	11
239	4
250	6
252	8
253	3
263	5
265	5
274	8
276	37
277	23
278	38
279	24
311	3
313	5
326	3
339	5
350	3
351	5
353	18
355	40
356	26
357	19
359	9
361	4
