Mass Spectrum: Acetamide, trichloro-N-(4-acetamidophenyl)-
Formula: C10H9Cl3N2O2
CAS: 55691-88-8
Molecular weight: 294
m/z	intensity
35	17
36	24
37	13
38	25
39	34
40	21
41	15
42	52
43	757
44	24
45	4
47	55
48	5
49	21
50	27
51	48
52	145
53	126
54	25
55	4
56	2
57	1
58	0
60	1
61	4
62	21
63	57
64	45
65	55
66	11
67	5
68	1
69	0
71	0
73	2
74	13
75	11
76	29
77	21
78	47
79	122
80	198
82	99
84	58
85	6
86	10
87	1
88	4
89	5
90	37
91	27
92	25
93	6
94	1
97	0
99	12
100	2
101	3
102	5
103	3
104	22
105	97
106	134
107	999
108	91
110	53
111	4
112	25
113	1
114	5
115	3
117	92
118	41
119	104
121	34
122	8
123	3
124	1
125	2
126	10
127	3
128	2
129	1
130	0
131	2
133	40
134	97
135	54
136	10
137	0
138	1
139	1
140	1
141	2
142	1
144	2
145	3
146	4
147	64
148	14
149	82
150	7
152	5
153	106
154	42
155	36
156	15
157	1
158	1
159	0
160	2
161	8
162	2
163	2
164	1
165	2
166	3
167	1
168	1
169	0
170	0
171	1
172	1
173	2
174	20
175	4
176	20
177	49
178	8
179	2
181	215
182	104
183	78
184	32
185	4
186	2
187	30
188	129
189	33
190	88
191	15
192	15
193	3
194	0
195	4
196	1
197	2
198	1
199	1
200	1
201	2
202	0
203	1
204	0
205	0
206	0
207	1
208	0
209	0
213	0
214	1
215	4
216	16
217	16
218	25
219	10
220	8
221	7
222	4
223	138
224	24
225	47
226	9
227	1
228	0
229	1
230	2
231	3
232	1
233	1
234	0
236	0
238	0
239	0
240	0
241	0
242	0
243	0
248	0
250	0
251	12
252	469
253	60
254	439
255	50
256	139
257	15
258	16
259	18
260	9
261	9
262	5
263	2
264	1
265	0
267	0
272	0
274	0
279	2
280	0
281	1
283	0
285	0
291	0
292	0
293	2
294	305
295	43
296	281
297	38
298	90
299	11
300	10
301	1
