Mass Spectrum: Ethanamide, 2-diethylamino-N-[2-(aminocarbonyl)phenyl]-
Formula: C13H19N3O2
CAS: 55695-69-7
Molecular weight: 249
m/z	intensity
26	0
27	7
28	11
29	21
30	51
31	1
33	0
34	0
39	4
40	0
41	4
42	14
43	5
44	4
45	1
46	0
47	0
48	0
50	2
51	2
52	1
53	0
54	1
55	2
56	14
57	8
58	44
59	2
60	0
61	0
62	0
63	3
64	2
65	6
66	1
67	0
68	0
69	1
70	4
71	2
72	51
73	2
74	0
75	0
76	1
77	4
78	1
79	0
80	1
81	1
82	0
83	1
84	5
85	3
86	999
87	35
88	0
89	0
90	8
91	2
92	5
93	0
94	0
95	0
96	0
97	0
98	0
99	0
100	1
101	1
102	1
103	0
104	1
105	1
106	1
107	1
108	0
109	0
110	0
111	0
112	0
113	4
114	0
115	0
116	0
117	0
118	1
119	5
120	3
121	1
122	0
123	0
124	0
125	0
126	1
127	0
128	0
129	1
130	1
131	1
132	5
133	1
134	0
135	1
136	2
137	0
138	0
139	0
140	0
141	0
142	0
143	0
144	0
145	1
146	6
147	1
148	0
149	3
150	0
151	1
152	0
153	1
154	1
155	1
156	1
157	0
158	1
159	2
160	25
161	3
162	0
163	1
164	1
165	1
166	0
167	0
168	1
169	0
170	1
171	0
172	0
173	0
174	0
176	0
177	0
178	0
179	0
181	0
182	0
183	0
184	0
185	0
186	0
187	0
188	0
189	0
190	0
191	0
193	0
194	0
195	0
196	0
197	0
198	0
199	0
200	1
201	0
202	0
203	1
204	1
206	0
207	0
208	0
209	0
210	1
211	0
212	0
213	1
214	1
215	1
216	1
217	1
218	0
220	0
230	1
231	0
232	2
233	1
234	0
240	1
246	0
247	0
248	0
249	11
250	1
251	0
252	0
