Mass Spectrum: cis-4-Benzyl-2,6-diphenyltetrahydropyran
Formula: C24H24O
CAS: 55696-74-7
Molecular weight: 328
m/z	intensity
39	42
41	58
43	58
51	52
55	44
57	50
63	16
65	54
67	15
69	31
71	24
76	14
77	157
78	92
79	35
81	17
83	21
85	15
89	26
90	10
91	310
92	54
93	10
95	13
97	15
102	17
103	75
104	999
105	238
106	21
107	25
115	75
116	35
117	213
118	75
119	13
120	25
121	31
127	15
128	38
129	58
130	31
131	92
132	36
133	12
141	10
143	7
145	15
146	7
147	10
149	17
159	18
160	10
165	12
167	8
178	11
179	9
191	10
202	9
203	9
204	8
205	35
206	38
207	10
208	88
209	17
210	4
215	6
217	12
218	7
219	12
220	12
221	8
222	12
237	54
238	22
239	4
250	15
251	3
308	4
310	3
328	13
