Mass Spectrum: 1-Butyne, 3-(2-methoxypropoxy)-
Formula: C8H14O2
CAS: 55702-66-4
Molecular weight: 142
m/z	intensity
12	1
13	2
14	10
15	127
16	2
17	0
18	1
19	1
24	0
25	2
26	19
27	142
28	30
29	147
30	7
31	85
32	1
33	7
36	0
37	3
38	10
39	34
40	7
41	43
42	23
43	80
44	3
45	58
46	1
47	0
48	0
49	2
50	13
51	21
52	37
53	205
54	13
55	14
56	3
57	12
58	32
59	999
60	32
61	3
62	0
63	0
65	0
66	1
67	3
68	3
69	8
70	14
71	4
72	59
73	32
74	1
75	18
76	0
77	0
79	0
80	0
81	1
82	0
83	4
84	0
85	2
87	1
88	1
89	2
95	3
96	0
97	11
98	0
99	0
100	2
101	3
102	0
109	0
110	1
111	4
112	3
113	0
127	9
141	0
