Mass Spectrum: 1,5-Dioxonane, 2-ethoxy-9-methyl-
Formula: C10H20O3
CAS: 55702-56-2
Molecular weight: 188
m/z	intensity
12	1
13	2
14	19
15	109
16	5
17	4
18	13
19	37
25	1
26	34
27	323
28	133
29	484
30	20
31	428
32	8
33	1
37	2
38	6
39	106
40	31
41	429
42	187
43	288
44	43
45	332
46	11
47	38
50	4
51	7
52	3
53	25
54	15
55	102
56	165
57	165
58	76
59	477
60	16
61	2
63	1
65	2
66	2
67	23
68	27
69	999
70	88
71	412
72	52
73	79
74	44
75	9
77	1
79	1
80	1
81	2
82	6
83	6
84	6
85	66
86	10
87	43
88	2
89	3
95	1
96	2
97	14
98	139
99	19
100	6
101	253
102	45
103	19
104	1
105	2
111	2
112	7
113	4
114	1
115	214
116	18
117	5
118	4
119	120
120	6
121	1
124	1
125	1
126	2
127	1
129	2
130	0
141	2
142	2
143	5
144	3
146	9
147	0
153	1
159	1
187	2
188	2
