Mass Spectrum: Azetidine, 1-methyl-2-phenyl-
Formula: C10H13N
CAS: 55702-58-4
Molecular weight: 147
m/z	intensity
12	1
13	3
14	17
15	191
16	2
18	4
25	1
26	25
27	86
28	74
29	9
30	7
37	8
38	23
39	96
40	15
41	4
42	458
43	55
44	69
45	2
49	4
50	65
51	223
52	62
53	13
54	13
55	6
56	4
57	1
58	2
59	2
60	1
61	13
62	34
63	81
64	20
65	47
66	8
67	1
68	19
69	3
70	90
71	5
72	3
73	7
74	33
75	29
76	37
77	195
78	193
79	19
80	1
85	2
86	5
87	6
88	3
89	37
90	16
91	97
92	9
93	0
94	1
95	1
96	0
97	1
98	2
99	1
101	4
102	35
103	180
104	648
105	67
106	4
113	1
114	1
115	19
116	11
117	43
118	999
119	232
120	20
121	1
128	1
129	1
130	10
131	6
132	35
133	3
143	0
144	9
145	26
146	196
147	164
148	17
149	1
