Mass Spectrum: 2-Pentanone, 5-(1,2-propadienyloxy)-
Formula: C8H12O2
CAS: 55702-69-7
Molecular weight: 140
m/z	intensity
12	1
13	4
14	19
15	110
16	2
17	1
18	3
19	0
24	0
25	5
26	41
27	117
28	29
29	74
30	2
31	12
32	0
36	0
37	10
38	25
39	157
40	17
41	106
42	48
43	999
44	25
45	7
47	0
49	0
50	3
51	4
52	2
53	16
54	11
55	36
56	15
57	8
58	19
59	4
61	0
62	0
63	1
64	0
65	2
66	1
67	6
68	2
69	20
70	5
71	5
72	0
73	0
77	2
78	0
79	4
80	4
81	4
82	3
83	11
84	6
85	198
86	11
87	1
91	0
93	0
94	2
95	2
96	1
97	68
98	14
99	2
101	0
111	0
112	3
113	1
125	0
140	8
141	0
