Mass Spectrum: 4-Penten-2-one, 3-cyclohexyl-
Formula: C11H18O
CAS: 55702-54-0
Molecular weight: 166
m/z	intensity
12	0
13	2
14	18
15	187
16	2
17	1
18	3
19	0
26	13
27	172
28	35
29	101
30	2
31	8
37	3
38	10
39	191
40	31
41	354
42	33
43	999
44	24
45	5
50	24
51	55
52	32
53	117
54	72
55	256
56	25
57	25
58	6
59	10
60	1
61	2
62	6
63	18
64	4
65	41
66	35
67	232
68	35
69	205
70	13
71	58
72	4
73	1
74	2
75	3
76	1
77	46
78	19
79	110
80	51
81	431
82	49
83	46
84	208
85	21
86	2
89	1
90	1
91	18
92	6
93	44
94	11
95	28
96	58
97	7
98	1
99	1
103	1
104	0
105	4
106	4
107	13
108	393
109	52
110	3
111	1
112	0
115	1
117	0
119	4
120	2
121	3
122	11
123	41
124	7
125	1
133	7
134	1
137	1
147	1
148	56
149	7
151	5
152	0
166	7
167	1
