Mass Spectrum: 2-Pentanone, 5-(2-propynyloxy)-
Formula: C8H12O2
CAS: 55702-70-0
Molecular weight: 140
m/z	intensity
12	3
13	7
14	30
15	181
16	3
17	1
18	4
19	1
24	1
25	9
26	46
27	145
28	49
29	141
30	6
31	26
36	2
37	23
38	53
39	595
40	44
41	190
42	107
43	999
44	27
45	9
49	1
50	4
51	5
52	5
53	56
54	38
55	87
56	9
57	18
58	181
59	20
60	1
61	1
62	0
63	1
65	3
66	2
67	9
68	3
69	71
70	10
71	16
72	1
73	1
77	3
78	0
79	5
80	1
81	33
82	29
83	260
84	17
85	40
86	3
87	1
91	0
95	5
96	1
97	9
98	1
99	2
101	181
102	10
103	1
107	0
109	0
112	0
113	1
125	3
