Mass Spectrum: Azetidine, 3-methyl-1-(phenylmethyl)-
Formula: C11H15N
CAS: 55702-31-3
Molecular weight: 161
m/z	intensity
13	0
14	3
15	28
16	0
18	1
26	5
27	32
28	18
29	8
30	6
38	9
39	77
40	11
41	81
42	65
43	6
44	1
49	0
50	21
51	43
52	11
53	3
54	4
55	14
56	7
57	4
58	0
59	0
60	0
61	3
62	10
63	33
64	11
65	90
66	5
67	1
68	5
69	1
70	7
71	0
73	0
74	3
75	3
76	3
77	11
78	5
79	1
80	0
82	0
83	0
84	21
85	1
86	1
87	1
89	22
90	14
91	999
92	88
93	3
102	0
103	1
104	3
105	1
106	1
115	0
116	1
117	7
118	31
119	23
120	3
130	0
131	1
133	1
134	0
144	0
145	0
146	10
147	1
158	0
159	13
160	72
161	53
162	6
163	0
