Mass Spectrum: Propanoic acid, 3-(2-propynyloxy)-, ethyl ester
Formula: C8H12O3
CAS: 55702-68-6
Molecular weight: 156
m/z	intensity
12	7
13	15
14	69
15	192
16	8
17	2
18	7
19	20
24	3
25	20
26	146
27	508
28	277
29	842
30	40
31	84
32	1
36	3
37	39
38	97
39	999
40	61
41	330
42	160
43	283
44	26
45	117
46	4
47	27
49	1
50	7
51	12
52	20
53	146
54	97
55	308
56	100
57	52
58	11
59	31
60	30
61	11
63	2
65	3
66	5
67	4
68	12
69	612
70	49
71	522
72	35
73	150
74	74
75	65
76	2
79	1
80	3
81	38
82	72
83	35
84	7
85	6
86	7
87	2
88	6
89	155
90	5
91	1
93	1
97	8
98	11
99	41
100	34
101	53
102	44
103	3
109	1
110	34
111	359
112	26
113	7
114	10
115	1
117	353
118	19
119	3
127	8
128	2
129	1
