Mass Spectrum: Chloroacetic acid, 4-chlorobenzyl ester
Formula: C9H8Cl2O2
CAS: 55704-51-3
Molecular weight: 218
m/z	intensity
26	24
27	31
28	5
29	75
30	8
31	6
35	27
36	31
37	28
38	53
39	149
40	17
41	21
42	86
43	47
44	49
47	21
48	28
49	286
50	148
51	267
52	33
53	4
55	2
60	4
61	33
62	59
63	177
64	53
65	39
72	7
73	51
74	49
75	132
76	33
77	313
78	33
79	65
80	4
84	5
85	19
86	14
87	17
88	5
89	389
90	101
91	29
92	2
93	4
99	61
101	21
105	2
107	119
108	20
109	2
111	62
112	25
113	51
115	7
121	4
123	11
124	293
125	999
126	177
127	339
128	21
138	2
139	37
140	17
141	146
142	121
143	49
144	37
159	13
161	11
183	19
184	2
217	5
218	129
219	19
220	93
221	13
222	15
