Mass Spectrum: 2-Pentene, 1-ethoxy-4,4-dimethyl-
Formula: C9H18O
CAS: 55702-60-8
Molecular weight: 142
m/z	intensity
13	5
14	30
15	176
16	7
18	1
19	6
25	2
26	40
27	494
28	70
29	652
30	46
31	215
32	2
37	7
38	22
39	345
40	55
41	673
42	92
43	464
44	118
45	112
46	3
47	1
49	1
50	14
51	37
52	16
53	139
54	34
55	618
56	68
57	999
58	102
59	105
60	4
61	1
62	3
63	9
64	2
65	25
66	14
67	98
68	15
69	82
70	192
71	135
72	50
73	24
74	2
75	1
77	21
78	8
79	48
80	8
81	497
82	79
83	233
84	16
85	658
86	304
87	35
88	2
91	1
93	1
95	15
96	28
97	43
98	6
99	77
100	5
113	3
127	11
141	3
142	1
