Mass Spectrum: Aziridine, 2-(1,1-dimethylethyl)-1,3-dimethyl-
Formula: C8H17N
CAS: 55712-58-8
Molecular weight: 127
m/z	intensity
2	5
12	1
13	2
14	15
15	283
16	6
17	13
18	50
19	0
20	0
25	0
26	33
27	273
28	190
29	228
30	78
31	6
32	10
36	0
37	5
38	15
39	194
40	28
41	322
42	999
43	149
44	179
45	6
49	0
50	7
51	16
52	10
53	29
54	33
55	151
56	163
57	99
58	133
59	19
60	0
61	0
62	1
63	2
64	1
65	5
66	4
67	13
68	25
69	72
70	125
71	40
72	15
73	1
74	1
75	0
76	0
77	2
78	1
79	5
80	8
81	22
82	61
83	14
84	218
85	29
86	2
87	0
91	0
92	0
93	0
94	7
95	4
96	25
97	18
98	6
99	2
108	1
109	0
110	4
112	805
113	64
114	2
126	33
127	9
128	1
