Mass Spectrum: Glycine, N-(N-acetyl-L-alanyl)-, butyl ester
Formula: C11H20N2O4
CAS: 55712-36-2
Molecular weight: 244
m/z	intensity
14	1
15	20
18	17
26	5
27	54
28	49
29	121
30	87
31	10
38	2
39	34
40	5
41	118
42	67
43	229
44	999
45	29
48	1
51	1
53	4
54	2
55	19
56	25
57	72
58	4
59	5
60	4
68	2
69	8
70	9
71	2
72	65
73	4
74	25
75	1
76	6
84	5
85	16
86	618
87	407
88	20
89	1
99	8
100	1
101	1
102	9
112	1
113	7
114	103
115	7
116	1
119	2
127	6
128	1
130	1
131	3
132	6
143	2
144	2
145	1
149	1
155	2
171	18
172	1
173	1
181	1
187	4
244	1
245	5
246	1
