Mass Spectrum: L-Leucine, N-(N-acetyl-L-leucyl)-, butyl ester
Formula: C18H34N2O4
CAS: 55712-43-1
Molecular weight: 342
m/z	intensity
15	5
18	3
26	3
27	29
28	27
29	59
30	61
31	3
32	6
39	17
40	3
41	82
42	17
43	88
44	135
45	5
51	2
53	5
54	4
55	21
56	19
57	67
58	3
59	3
60	6
65	3
67	6
68	7
69	18
70	29
71	6
72	10
73	9
74	8
77	2
78	3
81	3
82	3
83	4
84	24
85	9
86	999
87	59
88	3
91	35
92	3
95	3
96	3
97	6
98	3
99	7
100	3
101	2
103	20
106	3
111	2
112	9
113	4
114	7
115	3
126	4
127	14
128	462
129	283
130	26
131	3
132	4
140	4
141	10
144	2
148	2
149	5
155	3
156	41
157	6
159	7
169	2
170	3
172	5
173	3
176	9
184	2
186	6
187	3
188	20
189	3
197	3
204	7
205	2
212	4
214	3
215	9
218	4
225	3
230	4
231	3
239	2
241	26
242	5
243	6
260	9
269	10
270	2
276	4
286	51
287	8
295	3
311	2
316	2
327	8
328	2
342	4
343	3
