Mass Spectrum: L-Isoleucine, N-(N-acetylglycyl)-, butyl ester
Formula: C14H26N2O4
CAS: 55712-42-0
Molecular weight: 286
m/z	intensity
14	1
15	6
18	4
26	3
27	29
28	33
29	86
30	266
31	24
32	4
38	1
39	21
40	4
41	86
42	12
43	117
44	13
45	13
46	2
51	1
53	5
54	5
55	21
56	22
57	68
58	8
59	2
60	2
67	2
68	3
69	34
70	17
71	3
72	107
73	238
74	25
75	7
76	2
81	1
82	2
83	2
84	11
85	5
86	999
87	61
88	2
96	4
97	4
98	2
99	3
100	127
101	8
102	2
112	6
113	2
114	26
115	7
116	2
117	27
118	2
127	1
128	2
130	38
131	11
132	5
138	1
141	2
143	7
144	2
149	2
156	21
157	2
158	3
169	5
170	5
171	4
172	2
183	1
185	118
186	17
187	1
188	3
212	1
213	6
214	3
230	13
231	1
286	5
287	1
