Mass Spectrum: Glycine, N-(N-acetyl-L-leucyl)-, butyl ester
Formula: C14H26N2O4
CAS: 55712-44-2
Molecular weight: 286
m/z	intensity
15	28
18	8
26	8
27	143
28	74
29	213
30	244
31	16
38	5
39	69
40	11
41	244
42	56
43	317
44	281
45	8
49	6
51	5
53	16
54	11
55	43
56	54
57	142
58	8
59	5
60	11
67	14
68	14
69	21
70	57
71	9
72	21
73	6
74	29
76	16
81	5
82	6
83	6
84	34
85	36
86	999
87	59
95	6
96	6
97	11
98	5
99	19
100	8
102	8
112	19
113	8
114	5
126	6
127	9
128	608
129	133
130	11
131	6
132	31
140	5
156	51
157	6
187	11
213	14
230	36
231	5
