Mass Spectrum: 1,3-Cyclohexadiene-1-carboxylic acid, 5-hydroxy-6-methoxy-, trans-
Formula: C8H10O4
CAS: 55712-75-9
Molecular weight: 170
m/z	intensity
37	100
38	250
39	739
40	120
41	200
43	100
45	170
50	430
51	729
52	170
53	430
54	110
55	200
61	220
62	100
63	260
64	140
65	499
66	360
68	120
73	499
74	200
76	110
77	979
78	150
79	110
81	370
82	300
92	200
93	220
94	120
95	100
105	999
109	270
110	280
121	300
122	539
123	210
124	120
135	519
138	80
149	80
152	70
167	30
170	60
