Mass Spectrum: Silane, 2-butenyltrifluoro-
Formula: C4H7F3Si
CAS: 55712-74-8
Molecular weight: 140
m/z	intensity
26	40
27	310
28	160
29	370
39	270
41	360
53	75
54	42
55	999
85	100
93	42
105	67
121	50
125	51
140	440
