Mass Spectrum: L-Alanine, N-(N-acetyl-L-valyl)-, butyl ester
Formula: C14H26N2O4
CAS: 55712-45-3
Molecular weight: 286
m/z	intensity
14	2
15	15
17	1
18	8
26	7
27	51
28	51
29	105
30	33
31	5
32	5
36	3
37	1
38	3
39	31
40	6
41	97
42	33
43	159
44	291
45	8
50	2
51	2
53	7
54	7
55	102
56	54
57	70
58	51
59	2
60	22
67	3
68	4
69	13
70	27
71	18
72	999
73	51
74	6
77	1
79	2
80	1
81	3
82	4
83	17
84	4
85	3
86	3
87	3
88	21
90	6
91	2
93	2
95	3
96	2
97	3
98	5
99	45
100	91
101	7
105	1
107	2
109	3
110	2
111	1
112	3
113	24
114	924
115	432
116	37
117	3
124	2
125	1
126	8
127	11
128	2
130	2
140	1
141	3
142	129
143	12
144	7
145	7
146	21
147	3
149	5
151	3
167	1
169	2
170	2
185	35
186	4
201	32
202	5
210	3
213	16
214	2
225	2
227	2
228	2
229	1
243	1
244	17
245	2
271	3
286	2
