Mass Spectrum: L-Valine, N-(N-acetyl-L-alanyl)-, butyl ester
Formula: C14H26N2O4
CAS: 55712-41-9
Molecular weight: 286
m/z	intensity
14	5
15	26
17	11
18	41
26	11
27	80
28	65
29	125
30	52
31	11
32	9
36	4
38	5
39	48
40	10
41	145
42	58
43	180
44	940
45	32
46	3
50	4
51	5
52	3
53	11
54	10
55	95
56	60
57	95
58	8
59	12
60	6
61	4
65	4
67	10
68	10
69	22
70	20
71	16
72	999
73	50
74	11
75	3
76	3
77	5
79	6
81	10
82	8
83	12
84	8
85	11
86	515
87	880
88	43
89	5
91	5
93	4
94	3
95	9
96	7
97	9
98	18
99	6
100	7
101	7
102	5
103	4
105	4
107	4
108	3
109	7
111	5
113	9
114	130
115	15
116	31
117	5
118	5
119	3
121	3
123	5
125	4
126	3
127	9
128	6
129	4
130	6
131	27
132	3
133	4
135	3
137	4
141	7
142	5
143	5
144	4
149	18
155	4
157	3
158	7
159	3
167	3
169	11
170	6
172	6
173	5
174	5
179	3
183	3
185	120
186	18
212	3
213	19
214	3
229	5
244	4
250	3
251	6
263	4
286	15
287	5
