Mass Spectrum: Cyclohexane, 1,1'-(1,3-butadiene-1,4-diyl)bis-, (E,E)-
Formula: C16H26
CAS: 55712-53-3
Molecular weight: 218
m/z	intensity
2	7
14	5
15	29
16	3
17	15
18	53
26	13
27	259
28	101
29	155
30	5
31	2
32	5
38	7
39	252
40	39
41	675
42	42
43	32
44	2
45	2
50	9
51	46
52	32
53	275
55	512
56	88
57	32
58	10
59	3
62	7
63	43
64	16
65	180
66	113
67	999
68	156
69	141
70	9
71	4
73	7
74	8
75	11
76	8
77	350
78	167
79	679
80	403
81	591
82	349
83	118
84	9
87	2
88	6
89	13
90	9
91	378
92	87
93	413
94	228
95	174
96	23
97	9
102	7
103	30
104	22
105	107
106	37
107	274
108	145
109	126
110	16
115	27
116	11
117	37
118	11
119	36
120	14
121	152
122	902
123	102
124	7
127	4
128	9
129	6
130	2
131	10
132	5
133	18
134	34
135	689
136	370
137	39
145	2
147	10
148	3
149	7
150	3
161	13
162	8
163	2
175	15
176	4
177	7
189	2
203	1
218	310
219	53
220	4
