Mass Spectrum: Phosphoric acid, dimethyl 1-propenyl ester
Formula: C5H11O4P
CAS: 55712-50-0
Molecular weight: 166
m/z	intensity
39	93
40	5
41	67
79	243
80	150
109	639
110	999
111	54
120	5
140	5
160	15
165	18
166	398
167	23
