Mass Spectrum: Aspidofractinine-1-carboxaldehyde, 3-oxo-, (2.alpha.,5.alpha.)-
Formula: C20H22N2O2
CAS: 55724-69-1
Molecular weight: 322
m/z	intensity
41	999
42	513
43	405
44	405
45	58
50	63
51	121
52	90
53	211
54	189
55	297
56	162
57	184
58	130
59	9
60	36
61	13
62	13
63	76
64	18
65	103
66	54
67	202
68	72
69	85
70	76
71	49
72	13
73	58
74	18
75	45
76	36
77	184
78	162
79	117
80	76
81	130
82	76
83	63
84	54
85	45
86	9
87	18
88	18
89	76
90	45
91	112
92	58
93	63
94	81
95	108
96	455
97	112
98	54
99	45
100	13
101	54
102	81
103	85
104	63
105	90
106	54
107	67
108	157
109	216
110	256
111	108
112	54
113	67
114	76
115	400
116	184
117	148
118	90
119	54
120	36
121	58
122	243
123	103
124	126
125	40
126	27
127	85
128	148
129	135
130	166
131	40
132	31
133	85
134	9
135	22
136	54
137	4
138	13
139	22
140	40
141	40
142	45
143	148
144	72
145	4
146	13
147	27
148	13
149	31
150	18
151	18
152	36
153	27
154	90
155	85
156	153
157	112
158	54
159	22
160	4
161	9
162	4
163	9
164	13
165	27
166	31
167	121
168	126
169	126
170	94
171	99
172	27
173	13
174	4
175	9
176	4
177	13
178	18
179	13
180	54
181	31
182	54
183	31
184	27
185	31
186	9
187	4
191	9
192	4
193	13
194	31
195	36
196	31
197	40
198	9
199	4
204	4
205	4
206	13
207	63
208	31
209	94
210	76
211	22
219	4
220	13
221	13
222	13
223	36
224	27
225	9
233	4
234	4
235	9
236	4
237	67
238	90
239	13
249	13
250	9
251	22
252	9
253	4
263	4
264	4
265	27
266	40
267	4
277	4
279	4
281	4
291	4
292	9
293	45
294	103
295	13
320	22
321	31
322	175
323	40
324	4
