Mass Spectrum: Piperidine, 1,1'-[1,4-phenylenebis(1-oxo-2,1-ethanediyl)]bis-
Formula: C20H28N2O2
CAS: 55723-85-8
Molecular weight: 328
m/z	intensity
41	330
42	60
43	50
56	110
69	410
70	50
84	999
85	90
86	100
104	110
105	90
112	899
113	60
131	60
215	659
216	380
217	250
243	320
244	150
328	390
