Mass Spectrum: 1,3-Cyclohexadiene-1-carboxylic acid, 5-(acetyloxy)-6-methoxy-, 1,1-dimethylethyl ester, trans-
Formula: C14H20O5
CAS: 55723-83-6
Molecular weight: 268
m/z	intensity
39	280
41	559
43	829
45	190
47	190
51	150
53	100
56	200
57	999
60	100
65	160
79	340
81	110
94	160
95	100
105	380
109	120
110	200
121	170
123	529
124	210
135	300
138	739
139	90
152	480
153	90
163	110
170	400
171	40
194	50
195	50
196	50
208	50
212	40
226	30
227	10
236	10
268	20
