Mass Spectrum: Pentanal, 2,2-dimethyl-, hydrazone
Formula: C7H16N2
CAS: 55724-26-0
Molecular weight: 128
m/z	intensity
27	466
39	353
41	856
42	351
43	995
54	224
55	325
56	295
68	181
69	999
70	378
71	268
84	84
85	83
96	55
112	27
113	111
