Mass Spectrum: Phosphoric acid, 4-oxo-2,3-bis[(trimethylsilyl)oxy]butyl bis(trimethylsilyl) ester, [R-(R*,R*)]-
Formula: C16H41O7PSi4
CAS: 55723-94-9
Molecular weight: 488
m/z	intensity
41	50
42	13
43	83
44	42
45	175
46	17
47	33
49	4
50	4
51	8
52	8
53	4
55	25
56	4
57	17
58	25
59	133
60	13
61	21
63	4
65	4
66	13
67	8
68	29
69	8
70	4
71	13
72	38
73	999
74	133
75	250
76	13
77	38
78	4
79	13
81	4
83	8
84	4
85	21
86	4
87	13
88	8
89	17
91	4
93	25
94	8
95	13
96	4
97	4
98	4
99	21
100	4
101	242
102	29
103	242
104	21
105	17
107	4
111	4
113	8
114	4
115	29
116	133
117	38
118	13
119	21
120	4
121	17
123	4
127	17
128	13
129	79
130	21
131	33
132	13
133	158
134	29
135	50
136	8
137	13
138	4
139	4
140	4
141	29
142	25
143	29
144	8
145	4
146	4
147	292
148	50
149	58
150	8
151	17
153	4
155	4
156	33
157	25
158	8
159	13
161	4
163	4
165	4
167	4
173	4
174	4
175	4
177	8
179	8
181	17
183	8
189	21
190	4
191	29
192	8
193	33
194	8
195	33
196	8
197	13
203	17
204	13
205	17
206	4
207	100
208	21
209	17
210	8
211	208
212	33
213	25
214	4
215	13
216	8
217	13
218	8
221	13
225	46
226	13
227	117
228	17
229	17
230	17
231	300
232	71
233	25
234	4
241	8
243	75
244	13
245	8
246	79
247	29
248	13
249	4
253	21
254	4
255	8
256	8
267	4
269	29
270	4
271	8
281	8
283	42
284	8
285	38
286	13
287	4
295	21
296	4
297	8
298	25
299	783
300	250
301	142
302	21
303	13
313	17
314	83
315	275
316	63
317	29
318	8
319	4
327	4
328	13
329	4
341	63
342	17
343	13
344	4
345	4
355	8
356	42
357	833
358	200
359	125
360	29
361	8
369	4
370	4
373	8
383	92
384	29
385	29
386	25
387	242
388	67
389	58
390	21
391	8
398	4
415	8
416	4
417	42
418	13
419	8
445	25
446	8
447	8
473	38
474	13
475	4
488	3
