Mass Spectrum: N-Acetyl-D-glucosamine, 4TMS derivative
Formula: C20H47NO6Si4
CAS: 55721-25-0
Molecular weight: 509
m/z	intensity
72	18
73	999
74	9
75	458
76	32
77	110
78	9
80	22
89	32
96	13
98	18
99	9
100	18
101	18
102	9
103	105
104	9
105	9
113	9
114	9
115	22
116	64
117	68
118	18
119	9
128	22
129	45
130	18
131	211
132	45
133	55
134	9
142	22
143	27
144	36
145	18
147	201
148	36
149	36
150	9
155	9
156	32
157	32
158	45
159	18
160	18
168	18
169	27
170	36
171	9
172	13
173	990
174	155
175	55
176	9
177	9
182	18
184	18
186	78
187	13
189	13
190	9
191	73
192	9
193	9
203	18
204	91
205	27
206	13
211	13
212	13
217	123
218	119
219	18
230	9
231	18
232	9
233	307
234	68
235	22
240	9
242	4
244	4
245	4
246	18
247	4
258	9
259	55
260	27
261	4
305	82
306	27
307	13
314	36
315	4
316	4
329	0
330	0
331	0
332	4
333	0
345	3
346	7
347	5
348	2
360	2
361	0
362	2
363	0
376	2
404	7
405	1
406	2
419	3
420	2
450	1
494	41
495	18
496	8
497	1
