Mass Spectrum: Aspidofractinin-17-ol
Formula: C19H24N2O
CAS: 55724-56-6
Molecular weight: 296
m/z	intensity
40	20
41	200
42	100
43	60
44	30
50	10
51	30
52	20
53	60
54	40
55	60
56	30
57	30
58	20
63	20
64	10
65	40
66	10
67	60
68	10
69	20
70	30
71	10
75	10
76	10
77	80
78	10
79	50
80	50
81	90
82	20
83	10
84	10
89	20
90	10
91	40
92	10
93	20
94	20
95	10
96	60
97	10
98	10
100	10
101	10
102	10
103	30
104	20
105	20
106	20
107	50
108	160
109	999
110	130
111	20
112	10
113	20
114	10
115	40
116	10
117	30
118	10
119	10
120	20
121	20
122	40
123	20
124	410
125	40
126	10
127	20
128	10
129	10
130	30
131	10
132	10
133	40
134	20
135	10
136	80
137	30
138	20
139	10
140	40
141	20
142	10
143	10
144	30
145	10
146	50
147	30
148	80
149	10
152	10
153	10
154	30
155	40
156	10
157	10
158	20
159	60
160	60
161	10
166	10
167	20
168	10
169	10
170	20
171	20
172	70
173	110
174	230
175	30
180	10
181	10
182	10
183	20
184	30
185	30
186	30
187	40
188	60
189	10
192	10
193	10
194	10
195	50
196	30
197	60
198	40
199	20
200	10
207	10
208	10
209	20
210	40
211	60
212	30
213	30
214	10
222	10
223	10
224	30
225	60
226	30
227	10
236	10
237	20
238	30
239	50
240	60
241	10
250	10
251	10
252	20
253	40
254	20
265	30
266	30
267	70
268	770
269	150
270	10
279	20
280	10
281	20
282	130
283	20
287	10
293	20
294	80
295	150
296	500
297	110
298	10
