Mass Spectrum: 1,3-Cyclohexadiene-1-carboxylic acid, 5-(acetyloxy)-6-methoxy-, methyl ester, trans-
Formula: C11H14O5
CAS: 55723-81-4
Molecular weight: 226
m/z	intensity
39	130
43	999
44	200
45	140
51	150
58	100
59	150
65	130
75	200
77	380
79	100
92	150
93	100
105	220
121	180
123	120
124	280
133	200
135	470
152	460
166	210
184	290
194	20
195	30
226	50
