Mass Spectrum: cis-Chrysanthenol
Formula: C10H16O
CAS: 55722-60-6
Molecular weight: 152
m/z	intensity
26	2
27	44
28	4
29	55
30	2
31	18
37	3
38	14
39	259
40	44
41	375
42	32
43	192
44	13
45	18
46	1
49	1
50	31
51	106
52	42
53	193
54	36
55	284
56	45
57	81
58	7
59	209
60	14
61	7
62	14
63	49
64	13
65	192
66	53
67	558
68	86
69	365
70	51
71	24
72	53
73	4
74	7
75	8
76	6
77	370
78	77
79	473
80	218
81	891
82	178
83	225
84	132
85	15
86	3
87	3
88	1
89	18
90	8
91	752
92	147
93	350
94	473
95	552
96	399
97	91
98	8
99	1
101	2
102	10
103	70
104	26
105	295
106	72
107	672
108	157
109	999
110	98
111	12
112	1
115	37
116	10
117	54
118	11
119	396
120	214
121	882
122	109
123	256
124	37
125	3
127	1
128	2
129	1
131	3
132	1
133	12
134	65
135	16
136	4
137	317
138	29
139	2
151	5
152	138
153	15
154	1
