Mass Spectrum: Docosanoic anhydride
Formula: C44H86O3
CAS: 55726-23-3
Molecular weight: 662
m/z	intensity
15	1
17	3
18	10
26	2
27	17
28	19
29	48
30	1
31	1
32	3
34	1
39	13
40	3
41	133
42	29
43	268
44	11
45	5
51	1
53	7
54	24
55	253
56	76
57	298
58	16
59	7
60	107
61	56
62	2
65	2
66	5
67	53
68	53
69	159
70	83
71	176
72	12
73	150
74	18
75	1
77	3
78	3
79	15
80	14
81	57
82	67
83	213
84	207
85	118
86	9
87	59
88	7
89	1
91	4
92	2
93	14
94	16
95	42
96	59
97	197
98	999
99	101
100	9
101	19
102	9
103	1
104	1
105	2
106	1
107	9
108	9
109	21
110	24
111	153
112	231
113	41
114	5
115	33
116	27
117	2
118	1
119	1
120	1
121	16
122	7
123	14
124	16
125	54
126	23
127	18
128	3
129	111
130	17
131	2
133	1
134	1
135	12
136	5
137	9
138	11
139	22
140	10
141	12
142	3
143	25
144	7
145	1
149	8
150	2
151	4
152	8
153	12
154	9
155	9
156	2
157	15
158	8
159	1
163	4
164	1
165	3
166	5
167	8
168	5
169	7
170	1
171	29
172	12
173	2
177	2
178	1
179	2
180	4
181	6
182	4
183	5
184	1
185	56
186	11
187	1
191	1
192	1
193	1
194	3
195	4
196	4
197	5
198	1
199	22
200	5
201	1
205	1
206	1
207	1
208	3
209	3
210	5
211	3
212	1
213	15
214	7
215	1
216	1
219	1
221	1
222	3
223	3
224	5
225	2
227	21
228	7
229	1
230	1
231	2
235	1
236	3
237	2
238	4
239	2
241	45
242	9
243	1
245	1
246	16
247	3
248	1
249	1
250	1
251	2
252	4
253	1
255	19
256	4
261	1
265	2
266	3
267	1
269	9
270	2
278	6
279	5
280	3
281	1
283	14
284	4
293	1
294	2
297	45
298	9
299	1
304	3
305	1
311	7
312	2
320	1
321	1
322	8
323	10
324	2
340	126
341	30
342	4
