Mass Spectrum: Pentanal, 2,2-dimethyl-, (2,2-dimethylpentylidene)hydrazone
Formula: C14H28N2
CAS: 55724-27-1
Molecular weight: 224
m/z	intensity
25	10
26	90
27	630
28	370
29	470
30	90
31	10
32	10
37	20
38	40
39	360
40	70
41	999
42	230
43	930
44	90
49	10
50	20
51	30
52	10
53	80
54	50
55	570
56	320
57	170
58	60
65	10
67	40
68	50
69	330
70	590
71	160
72	20
81	10
82	50
83	70
84	130
85	120
86	10
95	10
96	30
97	50
98	50
105	10
111	20
112	110
114	360
115	20
119	10
125	80
126	50
127	10
137	10
139	390
140	60
154	10
167	10
168	350
169	40
181	50
182	320
183	40
195	210
196	20
209	40
224	10
