Mass Spectrum: Silane, [[3-(3-bromophenyl)-3-butenyl]oxy]trimethyl-
Formula: C13H19BrOSi
CAS: 55724-00-0
Molecular weight: 298
m/z	intensity
41	80
43	30
47	10
58	10
59	20
73	860
74	80
75	180
101	100
102	20
103	999
104	80
105	10
115	20
128	20
129	40
253	20
255	20
283	30
285	30
298	20
300	20
