Mass Spectrum: 4-Nonene, 2-methyl-
Formula: C10H20
CAS: 55724-84-0
Molecular weight: 140
m/z	intensity
41	455
42	99
43	455
44	9
45	19
51	9
53	69
54	108
55	999
56	831
57	267
65	9
67	59
68	39
69	475
70	188
71	19
77	19
79	19
81	39
82	19
83	89
84	69
85	9
97	79
98	29
111	9
112	29
125	19
140	148
