Mass Spectrum: 1,6-Bis(2-propyn-1-yloxy)hexane
Formula: C12H18O2
CAS: 55720-49-5
Molecular weight: 194
m/z	intensity
40	96
41	999
42	254
43	243
44	63
45	37
46	1
50	5
51	11
52	7
53	80
54	259
55	504
56	119
57	301
58	28
59	8
61	2
62	1
63	2
65	24
66	1
67	544
68	100
69	486
70	68
71	122
72	41
73	7
74	2
77	11
78	4
79	52
81	390
82	143
83	56
84	12
85	6
86	1
87	7
91	7
92	2
93	6
97	9
99	135
100	10
101	2
105	2
107	1
110	2
111	3
125	1
126	1
