Mass Spectrum: Cholestane, 3,4-epoxy-2-methyl-, (2.alpha.,3.alpha.,4.alpha.,5.alpha.)-
Formula: C28H48O
CAS: 55724-43-1
Molecular weight: 400
m/z	intensity
41	360
42	80
43	730
44	999
45	60
47	40
48	20
49	10
50	10
51	10
53	30
54	20
55	440
56	90
57	360
58	150
59	40
60	10
67	170
68	60
69	280
70	50
71	170
72	10
73	10
74	90
77	30
78	10
79	90
80	20
81	240
82	80
83	270
84	60
85	120
86	60
87	100
88	10
91	80
92	10
93	110
94	40
95	240
96	60
97	150
98	50
99	30
100	10
101	20
105	110
106	20
107	110
108	40
109	160
110	40
111	90
112	10
113	10
115	30
117	40
118	40
119	100
120	30
121	100
122	40
123	90
124	20
125	50
126	10
127	20
129	10
130	10
131	40
132	10
133	60
134	20
135	70
136	20
137	40
138	80
139	30
140	10
141	10
142	10
143	30
144	10
145	40
146	10
147	60
148	20
149	80
150	10
151	50
152	10
155	150
156	10
157	20
158	60
159	40
161	30
162	10
163	20
165	10
167	10
171	20
173	20
174	10
175	20
176	10
177	40
178	20
179	10
185	10
187	80
188	10
189	10
191	10
200	10
201	10
203	10
204	10
213	10
217	10
227	70
228	20
229	20
231	40
245	220
246	180
247	50
260	20
261	10
368	20
382	40
383	10
385	110
386	30
400	360
401	110
