Mass Spectrum: L-Tyrosine, N-(N-acetyl-L-leucyl)-, butyl ester
Formula: C21H32N2O5
CAS: 55723-91-6
Molecular weight: 392
m/z	intensity
14	3
15	11
18	9
26	7
27	53
28	40
29	122
30	140
31	9
36	3
38	5
39	40
40	9
41	134
42	34
43	212
44	271
45	7
46	3
50	4
51	12
52	11
53	18
54	9
55	36
56	32
57	78
58	5
59	3
60	16
63	6
64	3
65	16
66	4
67	10
68	14
69	22
70	42
71	9
72	18
73	6
74	25
75	12
76	4
77	51
78	22
79	11
80	4
81	6
82	5
83	4
84	34
85	31
86	999
87	58
89	5
90	9
91	40
92	5
93	4
94	14
95	9
96	7
97	14
98	9
99	11
100	7
101	3
103	4
104	3
105	5
106	10
107	465
108	73
109	7
110	3
111	6
112	15
113	5
114	9
116	5
117	5
118	7
119	22
120	47
121	13
122	3
123	13
126	9
127	6
128	694
129	96
130	16
131	34
132	21
133	10
134	18
135	52
136	275
137	30
141	4
144	7
146	4
147	77
148	12
149	7
152	5
153	5
154	4
155	24
156	721
157	73
158	7
161	3
162	13
163	11
164	241
165	36
166	4
169	3
170	22
171	4
173	474
174	50
175	5
177	5
178	4
179	3
180	10
184	4
188	3
189	4
190	4
203	4
208	3
212	37
213	5
220	155
221	27
222	4
227	3
228	3
230	18
231	4
235	6
236	6
237	3
238	20
239	4
264	3
275	3
286	18
287	3
293	3
319	6
377	7
392	3
