Mass Spectrum: 3.alpha.-Tigloyloxynortropane
Formula: C12H19NO2
CAS: 55727-41-8
Molecular weight: 209
m/z	intensity
27	24
28	13
29	47
30	11
32	7
38	7
39	24
45	12
50	19
53	21
54	24
55	95
56	19
59	7
65	24
67	116
68	178
80	185
81	62
82	69
83	44
84	11
100	4
108	73
109	30
110	999
111	54
124	16
125	10
126	23
128	4
129	7
136	6
153	5
168	8
180	3
193	6
194	31
209	69
210	8
