Mass Spectrum: 1,4-Dioxaspiro[4.5]decane, 8-chloro-
Formula: C8H13ClO2
CAS: 55724-03-3
Molecular weight: 176
m/z	intensity
41	160
42	210
43	80
45	20
51	20
52	10
53	50
54	20
55	190
56	10
63	10
65	20
67	30
68	20
69	20
75	20
77	20
78	10
79	30
80	10
81	10
84	20
86	350
87	10
98	10
99	999
100	50
101	10
111	20
112	10
125	10
140	10
141	40
142	10
176	10
