Mass Spectrum: Tricyclo[3.3.1.1(3,7)]decane-1,3-dicarboxylic acid, 4-oxo-
Formula: C12H14O5
CAS: 55724-14-6
Molecular weight: 238
m/z	intensity
41	240
42	20
43	70
44	20
45	50
47	10
50	20
51	60
52	40
53	90
54	30
55	110
56	10
57	30
58	20
59	30
60	10
62	10
63	20
64	10
65	80
66	40
67	70
68	40
69	50
70	10
71	10
73	10
74	10
75	10
77	180
78	70
79	350
80	50
81	80
82	20
83	10
84	10
86	180
87	20
91	180
92	60
93	110
94	30
95	20
97	20
99	10
103	10
104	20
105	60
106	20
107	130
108	180
109	999
110	100
111	20
115	20
116	10
117	40
118	20
119	120
120	40
121	30
122	40
123	100
124	30
125	30
126	10
129	20
130	10
131	30
132	10
133	20
134	20
135	40
136	30
137	30
138	10
139	10
145	10
146	20
147	30
148	80
149	80
150	10
151	20
152	100
153	80
154	10
159	10
161	10
164	10
165	10
166	80
167	20
174	10
175	10
176	170
177	30
178	30
179	10
180	10
192	10
193	10
194	380
195	50
196	10
204	10
208	10
222	10
238	10
