Mass Spectrum: Aspidofractinine-1-carboxaldehyde, 17-methoxy-3-methylene-, (2.alpha.,5.alpha.)-
Formula: C22H26N2O2
CAS: 55724-68-0
Molecular weight: 350
m/z	intensity
41	463
42	333
43	999
44	253
45	65
46	7
47	79
48	36
49	79
50	173
51	311
52	195
53	130
54	87
55	173
56	108
57	159
58	72
59	65
60	14
61	14
62	14
63	79
64	21
65	79
66	29
67	130
68	246
69	58
70	65
71	21
72	21
73	94
74	43
75	29
76	65
77	268
78	724
79	166
80	72
81	130
82	50
83	79
84	166
85	36
86	101
87	50
88	21
89	50
90	36
91	115
92	21
93	72
94	58
95	72
96	94
97	36
98	14
99	7
100	7
101	43
102	108
103	72
104	43
105	72
106	43
107	58
108	79
109	268
110	115
111	43
112	14
113	14
114	21
115	108
116	58
117	72
118	50
119	50
120	50
121	58
122	144
123	58
124	108
125	43
126	21
127	58
128	65
129	43
130	79
131	58
132	50
133	58
134	43
135	29
136	36
137	14
138	21
139	50
140	58
141	43
142	50
143	50
144	43
145	58
146	94
147	79
148	58
149	29
150	21
151	21
152	43
153	50
154	79
155	58
156	58
157	36
158	50
159	29
160	94
161	115
162	50
163	21
164	79
165	43
166	43
167	79
168	65
169	43
170	58
171	36
172	43
173	79
174	87
175	72
176	14
177	7
178	29
179	21
180	65
181	50
182	50
183	58
184	79
185	50
186	79
187	36
188	14
189	14
190	36
191	29
192	29
193	43
194	50
195	50
196	58
197	65
198	123
199	115
200	144
201	72
202	14
203	7
204	29
205	29
206	43
207	50
208	50
209	58
210	79
211	65
212	108
213	65
214	43
215	72
216	29
217	58
218	29
219	21
220	43
221	36
222	72
223	58
224	101
225	79
226	94
227	79
228	43
229	7
230	7
231	7
232	7
233	21
234	43
235	58
236	87
237	152
238	115
239	72
240	29
241	36
242	7
243	210
244	36
245	7
247	14
248	29
249	43
250	202
251	123
252	87
253	50
254	36
255	29
256	7
259	21
260	7
261	29
262	72
263	43
264	72
265	87
266	72
267	94
268	21
269	7
276	14
277	29
278	50
279	123
280	50
281	21
282	87
283	14
285	7
289	7
290	14
291	58
292	36
293	130
294	166
295	79
296	14
304	7
305	14
306	21
307	115
308	29
309	7
313	36
319	21
320	58
321	724
322	521
323	115
324	21
335	36
336	7
337	7
338	7
339	21
340	21
348	14
349	130
350	695
351	181
352	29
