Mass Spectrum: Aspidofractinine, 1-acetyl-17-methoxy-
Formula: C22H28N2O2
CAS: 55724-53-3
Molecular weight: 352
m/z	intensity
40	10
41	130
42	90
43	580
44	50
51	20
52	10
53	30
54	30
55	50
56	30
57	20
58	30
63	10
65	10
67	50
68	20
69	20
70	20
76	10
77	50
78	10
79	40
80	40
81	90
82	40
83	10
90	10
91	10
92	40
93	10
94	20
95	10
96	10
97	40
103	20
105	10
106	10
107	20
108	110
109	999
110	100
111	10
115	40
116	10
117	20
118	10
119	10
120	10
121	20
122	50
123	10
124	360
125	30
127	20
128	20
129	20
130	20
131	10
132	10
133	10
134	10
136	60
137	20
138	10
139	10
140	20
141	10
143	10
144	20
145	20
146	20
147	10
152	10
153	10
154	30
155	110
156	20
157	10
158	20
159	10
160	30
161	10
165	10
166	20
167	20
169	10
170	10
171	20
172	10
173	40
174	30
175	10
180	10
182	10
183	10
184	10
185	10
186	40
187	60
188	120
189	10
191	10
192	10
194	10
195	10
196	20
197	20
198	30
199	20
200	10
201	10
208	10
209	10
210	40
211	30
212	30
213	10
222	10
223	10
224	20
225	30
226	10
230	10
236	10
237	20
238	30
239	30
240	10
250	10
251	10
252	10
253	20
254	10
265	30
266	20
267	20
268	20
269	10
279	20
280	10
281	120
282	110
283	10
287	10
293	20
294	10
295	30
296	20
297	10
307	40
308	240
310	90
311	10
323	10
324	430
325	90
337	20
338	50
339	10
350	50
351	100
352	550
353	130
354	10
