Mass Spectrum: N-Benzenesulfonyloxy-2,2-bis(trifluoromethyl)aziridine
Formula: C10H7F6NO3S
CAS: 55734-41-3
Molecular weight: 335
m/z	intensity
51	213
52	21
69	101
70	7
77	999
78	101
79	11
141	999
142	81
143	51
335	21
336	3
337	1
