Mass Spectrum: N-Methoxycarbonyloxy-2,2-bis(trifluoromethyl)aziridine
Formula: C6H5F6NO3
CAS: 55734-39-9
Molecular weight: 253
m/z	intensity
28	100
29	28
30	564
31	32
33	100
34	1
43	60
44	52
45	548
46	20
58	68
59	999
60	60
61	9
64	44
69	180
70	2
78	48
95	92
96	11
109	76
110	11
128	260
129	10
158	60
159	28
178	212
179	10
