Mass Spectrum: N-Tosyloxy-2-methyl-3,3-bis(trifluoromethyl)aziridine
Formula: C12H11F6NO3S
CAS: 55734-42-4
Molecular weight: 363
m/z	intensity
39	101
40	8
41	49
51	65
52	4
65	231
69	75
70	6
77	49
91	999
92	101
93	9
155	861
156	101
157	45
363	1
