Mass Spectrum: N-Benzyloxy-2,2-bis(trifluoromethyl)aziridine
Formula: C11H7F6NO2
CAS: 55734-40-2
Molecular weight: 299
m/z	intensity
51	101
52	11
69	81
70	1
77	387
78	47
105	999
106	75
107	12
299	1
