Mass Spectrum: Pyrimidine, 4,6-dimethyl-2-(4-nitrobenzyl)thio-
Formula: C13H13N3O2S
CAS: 55749-84-3
Molecular weight: 275
m/z	intensity
33	3
34	2
36	0
37	31
38	139
39	783
40	165
41	133
42	308
43	21
44	18
45	135
46	85
47	10
48	1
49	4
50	105
51	205
52	124
53	89
54	31
55	24
56	6
57	29
58	39
59	45
60	24
61	14
62	89
63	389
64	157
65	91
66	181
67	488
68	41
69	56
70	50
71	50
72	155
73	13
74	34
75	28
76	49
77	169
78	344
79	31
80	93
81	218
82	89
83	51
84	24
85	8
86	21
87	20
89	570
90	247
91	27
92	15
93	319
94	38
95	31
96	24
97	10
98	58
99	16
100	2
101	1
102	5
103	11
104	9
105	12
106	50
107	264
108	999
109	119
110	12
111	2
112	8
113	2
114	8
115	10
116	4
117	1
118	2
119	5
120	26
121	217
122	47
123	15
124	27
125	16
126	4
127	5
128	12
129	5
130	4
131	6
132	2
133	1
134	2
135	1
136	33
137	14
138	2
139	28
140	26
141	6
142	3
143	2
144	1
145	0
146	6
147	3
148	1
149	2
150	1
151	14
152	40
153	160
154	28
155	14
156	4
157	1
158	0
163	2
164	1
165	1
166	7
167	6
168	12
169	13
170	5
171	5
172	4
173	0
175	0
176	3
178	1
179	0
180	1
181	6
182	4
183	10
184	11
185	6
186	2
187	3
189	0
193	2
194	2
195	48
196	185
197	26
198	3
200	1
201	1
202	5
211	3
212	7
213	4
214	15
215	4
216	1
217	6
225	6
226	1
227	7
228	13
229	21
230	5
241	4
242	71
243	13
244	0
245	11
246	1
258	0
259	1
260	7
261	0
270	1
272	2
274	15
275	625
276	111
277	37
278	4
