Mass Spectrum: 2H-Pyran, 3,4-dihydro-2-butoxy-5-(1-methylpropyl)-
Formula: C13H24O2
CAS: 55740-79-9
Molecular weight: 212
m/z	intensity
26	10
27	195
28	43
29	502
30	16
31	36
38	5
39	137
40	20
41	451
42	38
43	217
44	124
45	155
46	5
47	3
50	5
51	18
52	11
53	90
54	36
55	318
56	999
57	550
58	39
59	11
63	4
64	3
65	26
66	14
67	137
68	24
69	107
70	33
71	69
72	18
73	9
77	25
78	5
79	82
80	15
81	226
82	40
83	124
84	54
85	720
86	51
87	7
91	19
92	6
93	44
94	11
95	115
96	27
97	61
98	18
99	88
100	339
101	105
102	9
103	4
105	15
106	5
107	16
108	8
109	280
110	87
111	37
112	12
113	29
114	5
119	4
120	4
121	45
122	7
123	36
124	5
125	11
126	5
127	790
128	73
129	8
137	7
138	59
139	196
140	25
141	52
142	6
153	4
155	21
156	14
157	4
183	320
184	43
185	5
197	11
198	3
212	203
213	36
214	5
