Mass Spectrum: 2-Propenal, 3-(2,2,6-trimethyl-7-oxabicyclo[4.1.0]hept-1-yl)-
Formula: C12H18O2
CAS: 55759-91-6
Molecular weight: 194
m/z	intensity
27	150
29	100
39	150
41	250
43	400
53	90
55	150
67	60
69	90
77	70
79	100
81	150
85	30
91	70
93	100
95	100
107	100
109	999
110	100
111	50
121	150
151	450
179	60
