Mass Spectrum: 1-Propanamine, 3-(2-methoxy-1-methylethoxy)-
Formula: C7H17NO2
CAS: 55759-85-8
Molecular weight: 147
m/z	intensity
14	3
15	59
16	2
17	6
18	40
19	5
26	5
27	43
28	91
29	88
30	858
31	70
32	4
33	7
35	3
36	1
37	2
38	31
39	6
40	269
41	73
42	208
43	100
44	357
45	16
46	56
47	1
49	2
50	5
51	1
52	0
53	5
54	6
55	186
56	498
57	999
58	163
59	9
60	1
61	0
62	1
63	0
64	2
65	0
66	1
68	1
69	1
70	8
71	13
72	64
73	154
74	275
75	23
76	31
77	9
78	5
79	14
80	2
81	0
82	1
83	3
84	58
85	10
86	8
87	3
88	52
89	7
90	0
101	16
102	2
103	208
104	12
105	1
116	3
117	7
118	6
129	9
130	2
131	2
132	7
133	0
145	1
146	1
147	5
148	0
