Mass Spectrum: 6-Maleimidocaproic acid
Formula: C10H13NO4
CAS: 55750-53-3
Molecular weight: 211
m/z	intensity
25	2
26	67
27	73
28	64
29	65
30	15
31	17
36	4
38	5
39	55
40	14
41	156
42	45
43	81
44	34
45	78
46	4
47	2
48	2
50	5
51	6
52	10
53	61
54	183
55	241
56	113
57	63
58	10
59	23
60	80
61	10
62	11
63	3
64	5
65	10
66	13
67	62
68	140
69	87
70	43
71	52
72	8
73	44
74	9
75	3
76	3
77	4
78	8
79	9
80	97
81	32
82	300
83	173
84	50
85	27
86	7
87	10
88	3
89	2
91	7
92	4
93	7
94	26
95	71
96	111
97	42
98	282
99	116
100	20
101	24
102	8
103	3
104	4
105	5
106	5
107	6
108	10
109	25
110	999
111	297
112	247
113	35
114	24
115	8
116	5
117	3
118	2
119	7
120	6
121	12
122	10
123	28
124	40
125	17
126	6
127	8
128	20
129	22
130	173
131	16
132	6
133	5
134	4
135	7
136	40
137	74
138	37
139	14
140	6
141	7
142	3
143	5
144	2
145	3
146	4
147	13
148	13
149	91
150	19
151	28
152	122
153	14
154	9
155	4
156	2
157	5
159	8
160	4
161	4
162	3
163	4
164	10
165	195
166	28
167	11
168	5
169	5
170	2
171	6
172	3
173	4
174	4
175	140
176	27
177	18
178	6
179	4
180	4
181	3
182	6
183	8
184	3
185	9
186	3
187	3
188	2
189	3
190	3
191	4
192	9
193	326
194	78
195	13
196	4
197	3
198	4
199	4
200	2
202	2
203	2
205	2
207	2
208	2
209	3
211	239
212	29
213	8
