Mass Spectrum: 1,25-Dihydroxyvitamin D3, TMS derivative
Formula: C30H52O3Si
CAS: 55759-94-9
Molecular weight: 488
m/z	intensity
45	453
46	49
47	97
48	28
49	46
50	253
51	306
52	118
53	465
54	253
55	999
56	648
57	999
58	363
59	363
60	404
61	128
62	49
63	146
64	49
65	36
66	112
67	848
68	363
69	400
70	159
71	999
72	212
73	885
74	114
75	461
76	200
77	657
78	146
79	146
80	146
81	795
82	306
83	557
84	200
85	302
86	73
87	146
88	61
89	57
90	20
91	542
92	159
93	542
94	200
95	732
96	459
97	418
98	106
99	159
100	51
101	102
102	51
103	122
104	102
105	555
106	157
107	387
108	159
109	453
110	163
111	255
112	73
113	81
114	87
115	332
116	122
117	306
118	106
119	318
120	134
121	306
122	146
123	255
124	138
125	149
126	51
127	114
128	122
129	200
130	106
131	999
132	240
133	428
134	999
135	602
136	114
137	285
138	97
139	61
140	57
141	159
142	44
143	210
144	69
145	257
146	73
147	200
148	97
149	159
150	49
151	179
152	424
153	132
154	57
155	204
156	97
157	179
158	97
159	224
160	97
161	200
162	49
163	157
164	49
165	73
166	36
167	65
168	49
169	130
170	49
171	114
172	57
173	153
174	114
175	106
176	57
177	57
178	36
179	49
180	24
181	73
182	24
183	67
184	24
185	81
186	46
187	110
188	49
189	77
190	51
191	61
192	53
193	55
195	73
196	32
197	120
198	53
199	102
200	32
201	59
203	49
204	34
205	69
206	34
207	40
209	61
210	32
211	142
212	40
213	69
214	32
215	57
217	40
218	34
219	34
221	32
223	51
225	51
227	65
228	32
229	55
239	44
241	51
243	36
244	32
245	57
246	32
247	32
251	77
253	36
255	36
257	36
258	34
259	32
267	53
269	77
271	71
272	24
273	30
340	36
365	34
380	53
398	77
399	32
400	36
412	116
413	46
414	32
452	40
488	65
489	20
490	14
