Mass Spectrum: Cyclobutaneacetonitrile, 1-methyl-2-(1-methylethenyl)-
Formula: C10H15N
CAS: 55760-15-1
Molecular weight: 149
m/z	intensity
53	290
67	799
68	999
79	120
81	60
94	50
110	40
134	30
148	20
149	10
