Mass Spectrum: Cyclobutaneacetonitrile, 1-methyl-2-(1-methylethylidene)-
Formula: C10H15N
CAS: 55760-14-0
Molecular weight: 149
m/z	intensity
41	320
53	220
67	669
68	200
69	300
79	250
81	420
93	230
107	280
109	999
134	220
149	480
