Mass Spectrum: Naphthalene, 1,2,3,4-tetrahydro-1-(2-diethylaminoethyl)-1-(4-tolyl)-
Formula: C23H31N
CAS: 55764-16-4
Molecular weight: 321
m/z	intensity
33	2
34	2
35	6
36	36
37	1
38	13
39	9
40	35
41	13
42	49
43	28
44	45
45	3
50	1
51	5
52	1
53	3
54	2
55	6
56	36
57	28
58	76
59	3
60	0
63	2
64	1
65	8
66	0
67	0
70	12
71	9
72	13
73	31
74	3
75	0
76	2
77	12
78	4
79	10
80	0
81	0
83	0
84	11
86	999
87	57
88	2
89	3
90	1
91	27
92	3
93	2
98	6
99	4
100	23
101	6
102	4
103	7
104	6
105	90
106	8
107	2
115	16
116	4
117	7
118	3
119	5
121	0
126	0
127	9
128	25
129	34
130	14
131	3
135	0
141	4
142	2
143	4
144	1
150	1
152	2
153	0
155	0
157	2
164	0
165	4
166	0
176	0
178	8
179	4
187	0
189	4
190	2
191	7
192	5
193	1
194	3
201	0
202	7
203	6
204	4
205	6
206	4
207	4
215	1
216	0
218	0
219	2
220	3
221	4
222	4
233	0
306	7
307	0
321	44
322	10
323	0
