Mass Spectrum: Bicyclo[3.2.0]heptan-3-one, 1,4,4-trimethyl-, oxime
Formula: C10H17NO
CAS: 55760-17-3
Molecular weight: 167
m/z	intensity
41	999
53	240
55	320
68	200
69	739
79	230
81	210
109	240
122	400
124	569
125	380
138	150
150	350
152	380
167	70
