Mass Spectrum: Borane, methanetetrayltetrakis[difluoro-
Formula: CB4F8
CAS: 55760-23-1
Molecular weight: 208
m/z	intensity
49	872
68	35
72	999
91	156
121	780
140	595
159	35
189	123
