Mass Spectrum: .alpha.-(N,N-Dimethylamino)-3'-hydroxy-4'-methoxyacetophenone
Formula: C11H15NO3
CAS: 55761-48-3
Molecular weight: 209
m/z	intensity
41	8
42	41
43	10
45	4
50	4
51	11
52	17
53	6
54	2
55	5
56	8
57	12
58	999
59	37
62	2
63	5
65	10
66	3
67	4
73	5
77	6
78	2
79	7
80	6
81	2
82	3
93	3
94	4
100	32
101	2
108	8
109	2
122	4
123	10
124	3
137	19
138	2
151	22
152	3
166	49
167	4
207	9
208	2
209	13
