Mass Spectrum: Isopropylamine, N-trimethylsilyl-
Formula: C6H17NSi
CAS: 5577-65-1
Molecular weight: 131
m/z	intensity
15	2
27	5
28	4
29	7
30	3
31	5
39	4
41	9
42	13
43	36
44	27
45	39
46	8
47	2
50	33
51	5
53	2
54	2
55	6
56	8
57	8
58	39
59	92
60	18
61	4
67	1
68	2
69	1
70	8
71	3
73	442
74	59
75	18
76	1
82	1
83	1
84	4
85	1
86	6
87	1
88	1
98	3
100	34
101	4
102	2
114	91
116	999
117	111
118	39
119	2
128	1
130	19
131	30
132	4
133	1
