Mass Spectrum: Carbamic acid, [(4-methylphenyl)sulfonyl]-, ethyl ester
Formula: C10H13NO4S
CAS: 5577-13-9
Molecular weight: 243
m/z	intensity
39	60
40	130
41	50
43	350
44	100
45	110
46	40
50	50
51	80
52	30
53	30
55	150
56	80
57	150
58	60
60	30
62	30
63	120
64	30
65	280
66	20
67	30
68	20
69	100
70	40
71	50
77	70
78	30
79	50
80	20
81	50
82	20
83	50
84	30
85	40
89	100
90	60
91	999
92	120
95	40
97	40
105	20
106	100
107	150
108	940
109	100
111	30
120	70
139	30
149	30
151	30
155	660
156	70
157	30
170	20
171	50
179	550
180	70
186	30
197	320
198	50
240	4
242	4
243	55
244	8
245	4
246	4
