Mass Spectrum: tert-Butylamine, TMS derivative
Formula: C7H19NSi
CAS: 5577-67-3
Molecular weight: 145
m/z	intensity
26	4
27	25
29	31
30	18
31	15
34	1
36	1
37	1
38	2
39	27
41	67
42	38
43	77
44	64
45	102
46	27
47	3
50	2
51	1
52	1
53	3
54	3
55	10
56	18
57	18
58	87
59	53
60	38
61	8
62	1
64	1
65	0
66	0
68	2
69	5
70	7
71	6
72	16
73	858
74	295
75	55
76	9
77	1
79	1
82	1
84	14
85	4
86	4
87	1
88	5
91	0
97	2
98	5
99	1
100	9
104	1
112	2
114	60
115	8
116	3
126	1
127	3
130	999
131	136
132	39
133	2
145	3
