Mass Spectrum: 2,4,6-Trimethyl-1-nonene
Formula: C12H24
CAS: 55771-40-9
Molecular weight: 168
m/z	intensity
27	580
28	540
29	850
39	260
41	830
42	130
43	999
44	110
55	470
56	140
57	440
69	260
70	260
71	180
84	100
85	10
112	10
113	10
168	0
