Mass Spectrum: 1,3:2,4-Di-O-methylene-d-arabitol
Formula: C7H12O5
CAS: 55780-55-7
Molecular weight: 176
m/z	intensity
41	84
42	47
43	203
44	156
45	332
46	9
47	10
48	4
49	24
50	4
51	10
53	18
54	12
55	390
56	69
57	432
58	31
59	27
60	8
61	29
62	2
67	2
68	15
69	94
70	30
71	57
72	56
73	274
74	13
75	12
78	2
81	12
82	10
83	9
84	23
85	346
86	999
87	115
88	12
89	5
97	4
98	26
99	68
100	16
101	15
102	38
103	137
104	7
105	1
111	1
112	1
113	3
114	8
115	62
116	80
117	21
118	2
124	2
127	14
128	89
129	12
130	4
131	1
144	2
145	48
146	109
147	17
148	2
159	4
175	17
176	7
177	2
