Mass Spectrum: D-Fructose, 1,3,6-trideoxy-3,6-epithio-
Formula: C6H10O3S
CAS: 55780-98-8
Molecular weight: 162
m/z	intensity
45	543
46	112
47	20
53	93
55	292
56	132
57	999
58	186
59	231
60	164
61	334
63	42
67	42
68	244
69	311
70	45
71	90
72	48
73	740
74	500
76	273
77	193
84	86
85	254
86	366
87	324
88	80
89	119
90	61
97	42
98	45
99	45
100	58
101	212
102	202
103	51
110	48
111	103
112	42
115	61
116	48
119	19
126	51
134	35
144	103
162	149
