Mass Spectrum: 4,7-Methano-2,3,8-methenocyclopent[a]indene, 5,10-dibromododecahydro-
Formula: C14H16Br2
CAS: 55780-43-3
Molecular weight: 342
m/z	intensity
51	450
52	100
53	230
56	120
63	210
75	140
77	450
78	290
79	529
89	320
90	210
91	450
92	160
94	150
103	110
105	380
115	300
116	120
117	999
118	380
119	509
128	220
129	350
142	110
145	150
147	140
155	160
183	729
184	190
262	150
264	150
342	6
344	11
346	6
