Mass Spectrum: Glycine, N-[N-[2-[1-[2-[(butoxycarbonyl)amino]-1-oxopropyl]-2-pyrrolidinyl]-2-oxo-1-phenylethyl]-L-seryl]-, ethyl ester
Formula: C27H40N4O8
CAS: 55781-94-7
Molecular weight: 548
m/z	intensity
41	330
42	200
43	270
44	509
55	170
56	240
57	599
58	180
59	250
65	120
68	140
69	320
70	999
71	250
74	60
79	70
80	20
81	20
82	30
83	30
84	40
85	120
88	350
91	859
92	280
93	10
94	10
95	10
96	50
97	130
98	120
99	40
100	30
102	30
103	30
107	90
112	50
116	250
117	30
124	30
125	130
126	120
127	20
130	10
131	10
132	20
134	20
137	10
138	20
139	50
140	30
141	120
142	20
143	10
144	80
150	260
151	40
152	30
153	30
154	20
155	20
156	10
157	10
158	40
159	120
160	40
166	30
167	200
168	130
169	70
172	140
173	30
174	20
183	30
185	120
186	100
194	50
195	60
196	20
200	10
201	10
202	10
204	10
207	10
212	120
213	330
214	40
225	40
232	30
233	10
235	10
238	10
241	40
242	30
253	60
254	20
255	10
256	30
265	70
266	10
268	10
269	120
270	20
271	10
275	10
281	30
283	10
286	20
297	10
298	10
302	40
303	10
322	10
333	10
334	50
335	10
342	70
343	10
344	10
346	10
357	70
358	10
360	20
376	80
377	50
378	30
386	10
389	10
390	10
403	30
404	50
405	430
406	120
407	20
418	10
431	30
432	20
440	10
442	10
446	10
447	20
448	10
449	10
457	10
475	130
476	30
477	10
492	20
503	10
548	130
549	40
550	10
