Mass Spectrum: Oxazolo[5,4-d]isoxazol-5(2H)-one, 3-benzoyltetrahydro-6a-methyl-2,6-diphenyl-
Formula: C24H20N2O4
CAS: 55780-95-5
Molecular weight: 400
m/z	intensity
77	999
91	240
93	210
103	60
104	200
105	649
106	80
117	100
118	290
119	330
120	80
122	120
130	170
144	120
176	300
234	140
250	60
268	50
271	30
282	150
285	260
400	50
