Mass Spectrum: Bicyclo[2.2.1]heptan-2-one, 4-hydroxy-1,7,7-trimethyl-
Formula: C10H16O2
CAS: 55784-66-2
Molecular weight: 168
m/z	intensity
14	33
15	23
16	16
26	11
27	134
29	109
39	176
40	37
41	442
42	51
43	388
44	16
45	12
51	31
52	16
53	92
54	40
55	651
56	46
57	40
58	42
59	21
65	32
66	14
67	182
68	22
69	157
70	136
71	50
77	44
79	49
80	11
81	79
82	264
83	999
84	226
85	37
86	11
91	39
93	50
94	20
95	33
96	35
97	427
98	112
99	11
106	14
107	437
108	66
109	58
110	18
111	315
112	40
122	464
123	99
124	28
125	194
126	120
127	11
135	12
139	12
140	72
141	7
153	51
154	5
168	453
169	52
