Mass Spectrum: 2,7-Methanonaphthalene, 1,2,3,4,4a,7,8,8a-octahydro-3-methylene-
Formula: C12H16
CAS: 55794-98-4
Molecular weight: 160
m/z	intensity
26	14
27	191
29	46
38	25
39	442
40	78
41	412
42	27
43	34
44	95
45	16
50	48
51	204
52	99
53	200
54	65
55	58
56	14
57	24
62	21
63	70
64	33
65	208
66	141
67	335
68	55
69	120
70	19
71	26
75	20
76	24
77	516
78	293
79	804
80	618
81	403
82	248
83	27
89	27
90	15
91	999
92	578
93	352
94	151
95	31
102	22
103	75
104	447
105	393
106	269
107	31
116	50
117	536
118	253
119	337
120	47
128	16
129	57
130	38
131	360
132	156
133	25
141	19
142	12
143	18
145	176
146	32
159	30
160	756
161	98
162	18
