Mass Spectrum: 2-Oxepanone, 7-butyl-
Formula: C10H18O2
CAS: 5579-78-2
Molecular weight: 170
m/z	intensity
38	1
39	85
40	16
41	327
42	124
43	145
44	25
45	11
51	4
52	0
53	20
54	29
55	994
56	654
57	138
58	13
59	2
60	8
65	3
66	2
67	297
68	78
69	128
70	81
71	15
73	11
74	0
77	2
79	6
81	19
82	15
83	65
84	787
85	999
86	55
87	7
91	2
93	2
94	1
95	64
96	13
97	16
98	12
99	3
100	9
101	3
102	0
108	14
109	6
110	29
111	9
113	280
114	23
115	1
123	8
124	1
127	3
128	22
129	1
134	11
135	1
141	0
151	0
152	16
153	2
170	0
171	2
