Mass Spectrum: 5,6-Decanedione
Formula: C10H18O2
CAS: 5579-73-7
Molecular weight: 170
m/z	intensity
27	78
28	42
29	203
39	56
40	16
41	279
42	40
43	35
55	71
56	16
57	845
58	66
67	16
69	14
71	23
72	16
73	16
85	999
86	75
87	19
99	9
113	16
127	19
141	16
170	66
171	14
