Mass Spectrum: 1,4-Cyclooctanedione
Formula: C8H12O2
CAS: 55794-45-1
Molecular weight: 140
m/z	intensity
26	73
27	554
28	471
29	212
30	2
31	14
37	2
38	9
39	243
40	32
41	385
42	250
43	175
44	11
45	10
46	1
47	1
50	12
51	26
52	19
53	106
54	58
55	999
56	681
57	254
58	27
59	28
60	30
61	3
62	2
63	5
64	2
65	28
66	32
67	268
68	183
69	112
70	169
71	50
72	21
73	24
74	6
75	0
76	1
77	21
78	6
79	109
80	86
81	54
82	22
83	501
84	175
85	115
86	7
87	2
91	8
92	1
93	27
94	27
95	82
96	27
97	171
98	478
99	53
100	13
101	2
103	1
106	1
107	4
108	3
109	34
110	2
111	691
112	288
113	33
114	6
121	8
122	22
123	4
124	7
125	14
126	1
127	9
128	1
139	2
140	169
141	22
142	10
