Mass Spectrum: 1-Chloro-2-methyl-2-propanol
Formula: C4H9ClO
CAS: 558-42-9
Molecular weight: 108
m/z	intensity
14	23
15	104
17	28
26	24
27	167
29	455
31	435
39	120
41	221
42	43
43	240
49	47
55	113
57	315
58	23
59	999
60	48
66	30
69	10
73	8
75	10
77	9
91	31
92	10
93	418
94	18
95	141
