Mass Spectrum: Benzene, 1,2,3,4-tetrafluoro-5-nitro-
Formula: C6HF4NO2
CAS: 5580-79-0
Molecular weight: 195
m/z	intensity
28	5
30	776
31	165
32	4
36	5
37	19
38	1
44	4
46	52
48	0
49	3
50	0
51	11
55	15
56	22
60	6
61	51
62	8
63	7
67	3
68	41
69	91
70	2
71	0
74	31
75	145
76	6
79	68
80	136
81	11
82	5
86	26
87	23
88	1
91	26
92	15
93	83
94	10
98	47
99	999
100	59
101	8
105	7
106	4
110	9
111	6
112	5
113	26
115	1
116	37
117	11
124	1
129	7
130	58
131	4
136	3
137	285
138	15
144	2
148	39
149	430
150	26
163	1
165	174
166	11
167	8
176	2
179	58
180	3
195	526
196	34
197	2
