Mass Spectrum: 3-Amino-5-t-butylisoxazole
Formula: C7H12N2O
CAS: 55809-36-4
Molecular weight: 140
m/z	intensity
15	2
18	1
26	2
27	26
28	1
29	37
30	13
37	2
38	9
39	101
40	18
41	167
42	48
43	97
44	23
45	1
46	2
47	1
49	1
50	11
51	27
52	21
53	102
54	38
55	182
56	45
57	84
58	36
59	3
60	7
61	11
63	7
64	3
65	24
66	21
67	59
68	50
69	29
70	38
71	3
75	1
76	3
77	21
78	15
79	11
80	98
81	52
82	43
83	159
84	26
85	11
90	1
91	6
92	4
93	9
94	59
95	33
96	38
97	99
98	23
99	2
106	2
107	2
108	41
109	12
110	12
111	2
123	2
125	999
126	77
127	4
140	520
141	49
142	4
