Mass Spectrum: Salicylic acid, 4-proroxy-, 3-diethylaminopropyl ester
Formula: C17H27NO4
CAS: 55828-24-5
Molecular weight: 309
m/z	intensity
39	42
40	43
41	130
42	88
43	114
44	49
45	5
46	0
51	9
52	8
53	22
54	9
55	20
56	48
57	18
58	70
60	4
62	2
63	10
64	5
65	4
66	2
67	3
68	6
69	21
70	17
71	8
72	100
73	5
74	0
77	2
78	1
79	6
80	7
81	18
82	7
83	3
84	168
85	16
86	999
87	60
88	1
89	0
90	0
91	4
92	2
93	2
94	2
95	2
96	6
97	50
98	27
99	2
100	4
101	0
102	4
103	0
105	0
107	7
108	16
109	5
110	3
111	2
112	9
113	6
114	11
115	1
116	76
117	6
118	0
119	2
120	3
121	2
122	0
123	0
124	0
125	0
126	1
128	0
130	35
131	4
132	1
133	0
134	1
135	1
136	15
137	53
138	4
139	0
147	0
148	0
149	1
150	0
151	0
152	0
154	0
163	0
171	0
177	1
178	0
179	15
180	1
181	0
194	0
221	1
223	0
237	2
238	0
250	1
251	1
252	0
261	0
280	1
293	1
294	8
295	1
309	27
310	5
311	0
