Mass Spectrum: 1H-Indene-4-propanoic acid, octahydro-7a-methyl-1,5-dioxo-, 4-(2-carboxyethyl)octahydro-7a-methyl-5-oxo-1H-inden-1-yl ester, [1.alpha.(3aR*,4R*,7aR*),3a.beta.,4.beta.,7a.alpha.]-
Formula: C26H36O7
CAS: 55821-17-5
Molecular weight: 460
m/z	intensity
41	292
43	191
53	121
55	999
66	247
68	151
78	131
79	287
81	439
91	181
92	287
94	191
96	333
106	146
107	282
108	116
109	156
119	141
121	161
122	121
133	141
135	146
145	121
147	131
148	101
149	197
161	146
162	126
163	116
193	585
194	126
204	373
205	424
220	282
221	929
222	338
223	116
238	96
460	45
461	15
