Mass Spectrum: Cyclohexanone, 4-ethyl-4-methyl-3-(1-methylethyl)-, trans-
Formula: C12H22O
CAS: 55821-16-4
Molecular weight: 182
m/z	intensity
27	190
29	190
41	519
43	480
55	999
65	719
70	330
81	210
83	430
98	589
100	210
111	170
139	929
153	50
167	70
182	60
