Mass Spectrum: Prosta-10,13-dien-1-oic acid, 9-(methoxyimino)-15-[(trimethylsilyl)oxy]-, methyl ester, (13E,15S)-
Formula: C25H45NO4Si
CAS: 55821-11-9
Molecular weight: 451
m/z	intensity
71	65
73	999
74	95
75	290
79	55
81	70
83	30
89	60
91	70
99	55
105	25
106	75
116	30
117	65
118	100
129	644
130	135
131	65
132	90
147	35
148	305
173	180
199	285
200	70
330	100
348	15
361	130
362	20
380	310
381	80
420	205
421	65
451	30
