Mass Spectrum: L-Valine, N-[N-[1-(N-formyl-L-isoleucyl)-L-prolyl]-N-methylglycyl]-N-methyl-, methyl ester
Formula: C22H38N4O6
CAS: 55821-22-2
Molecular weight: 454
m/z	intensity
83	262
84	344
85	278
86	901
96	180
97	245
98	426
99	114
100	147
101	91
102	255
112	245
113	222
114	999
115	170
123	147
124	98
125	278
126	524
127	114
128	98
129	295
138	245
139	114
140	137
141	131
142	49
143	386
144	59
145	344
153	180
154	157
155	91
166	104
167	344
168	393
169	131
181	104
182	98
187	295
188	49
196	196
197	65
210	163
211	236
212	65
215	131
216	367
217	367
218	59
238	950
239	622
240	98
243	999
244	163
245	59
271	82
272	26
309	295
310	550
311	131
312	163
313	180
314	98
341	19
342	18
343	4
398	49
399	16
423	59
424	6
425	6
426	6
454	737
455	213
456	59
