Mass Spectrum: dl-Valinamide, N-methyl-N-(1-oxodecyl)glycyl-N-methyl-dl-leucyl-N-formyl-N,N2-dimethyl-
Formula: C28H52N4O5
CAS: 55822-83-8
Molecular weight: 524
m/z	intensity
70	100
71	290
72	30
73	40
74	10
75	10
77	10
79	10
80	20
81	100
82	60
83	170
84	130
85	180
86	100
87	20
88	10
91	20
93	20
94	20
95	110
96	60
97	160
98	130
99	180
100	999
101	90
102	20
105	10
107	10
108	10
109	60
110	50
111	100
112	70
113	100
114	20
115	20
116	10
117	10
119	20
121	20
122	10
123	30
124	20
125	60
126	70
127	350
128	709
129	20
130	10
131	110
132	10
133	10
135	10
137	20
138	30
139	40
140	30
141	50
142	40
143	10
144	30
145	20
146	20
147	10
149	10
151	10
152	10
153	20
154	20
155	120
156	40
157	40
158	40
159	30
163	10
165	10
166	10
167	20
168	20
169	40
170	20
171	20
181	10
182	10
183	40
184	20
185	20
196	10
197	20
198	20
199	10
200	10
210	10
211	30
212	30
213	20
224	40
225	40
226	999
227	160
228	20
236	20
237	10
239	40
240	50
257	16
258	4
259	3
260	3
261	2
262	4
263	3
264	11
265	7
266	5
267	15
268	4
269	3
270	2
271	6
272	3
299	23
300	5
301	7
308	1
309	10
310	3
311	10
312	4
313	12
314	2
317	2
321	1
322	1
323	5
324	2
325	35
326	10
327	5
331	1
337	5
338	5
339	20
340	6
341	7
342	1
343	1
350	1
351	4
352	17
353	46
354	19
355	5
361	1
362	1
363	1
364	1
365	4
366	3
367	7
368	21
369	11
379	2
380	1
381	2
382	3
383	4
384	1
393	2
395	5
396	2
398	2
407	1
409	2
410	2
411	3
412	2
421	3
423	2
424	1
435	4
437	2
438	4
439	9
440	3
441	2
449	2
451	2
452	2
454	2
463	2
465	2
466	4
467	7
468	2
469	2
470	1
477	1
479	1
480	1
482	1
490	1
491	10
493	1
494	2
495	4
496	2
497	2
503	1
505	3
507	3
508	3
509	2
519	2
520	2
521	2
522	4
523	9
524	3
525	1
