Mass Spectrum: l-Alanine, 3-chloro-N-[(phenylmethoxy)carbonyl]-, phenylmethyl ester
Formula: C18H18ClNO4
CAS: 55822-82-7
Molecular weight: 347
m/z	intensity
26	2
27	5
29	2
31	1
38	2
39	37
40	3
41	17
42	5
43	3
44	6
45	2
49	1
50	6
51	28
52	6
53	2
55	2
57	2
60	1
62	2
63	15
64	4
65	75
66	4
71	1
73	6
74	1
75	3
76	1
77	33
78	12
79	41
80	2
86	1
89	18
90	17
91	999
92	83
93	3
103	1
104	1
105	5
106	1
107	158
108	48
109	2
122	1
168	10
170	2
176	5
180	17
181	2
212	1
220	4
256	6
258	2
347	0
