Mass Spectrum: Benzeneacetic acid, 2,4,5-tris[(trimethylsilyl)oxy]-, trimethylsilyl ester
Formula: C20H40O5Si4
CAS: 55823-12-6
Molecular weight: 472
m/z	intensity
15	5
16	1
25	1
26	3
31	2
43	1
44	5
45	106
46	6
47	6
50	2
58	1
59	11
60	1
61	3
63	1
65	1
72	5
73	999
74	84
75	83
76	5
77	3
83	1
84	2
85	1
87	1
89	2
91	5
92	1
94	1
98	1
99	2
101	1
103	2
104	1
105	5
107	1
115	2
116	1
117	6
118	2
119	5
120	1
121	1
128	1
129	2
131	9
132	3
133	23
134	3
135	5
136	2
137	2
141	1
143	2
145	3
147	156
148	26
149	15
150	4
151	1
155	1
156	1
157	2
159	2
161	3
162	1
163	2
164	1
165	2
166	1
167	1
175	2
176	1
177	6
178	3
179	5
180	2
181	2
189	2
190	1
191	6
192	5
193	19
194	4
195	5
197	1
203	2
205	4
206	2
207	10
208	2
209	5
210	2
211	2
217	1
219	2
221	14
222	4
223	5
224	3
225	2
227	1
229	4
233	2
235	3
236	2
237	7
238	4
239	4
240	1
241	1
249	6
250	4
251	13
252	11
253	7
254	4
255	2
263	3
265	15
267	88
268	26
269	10
271	5
274	2
279	8
281	20
282	9
283	4
284	2
285	1
291	1
294	7
295	6
297	11
298	4
299	2
307	2
309	4
310	5
311	5
312	4
313	3
314	1
323	3
325	9
326	5
327	3
328	2
339	9
341	55
342	20
343	9
344	3
345	1
353	12
355	48
356	21
357	10
358	3
359	1
369	3
370	8
371	3
372	2
382	10
384	10
385	3
391	6
394	3
398	16
399	10
403	6
406	3
413	2
415	3
416	3
417	2
419	13
429	53
430	22
431	13
432	5
433	2
443	5
445	3
447	13
457	82
458	35
459	20
460	7
461	2
472	612
473	274
474	148
475	46
476	14
477	4
