Mass Spectrum: .beta.-D-Glucopyranosiduronic acid, 4-[acetyl(trimethylsilyl)amino]phenyl 2,3,4-tris-O-(trimethylsilyl)-, trimethylsilyl ester
Formula: C29H57NO8Si5
CAS: 55836-51-6
Molecular weight: 687
m/z	intensity
59	19
73	999
74	165
75	143
101	10
103	44
105	10
114	10
115	11
116	68
117	29
118	8
129	66
130	9
131	21
133	59
134	97
135	15
141	7
143	67
144	9
145	6
147	334
148	53
149	39
150	6
153	7
157	8
162	9
163	7
165	9
169	188
170	26
171	16
180	15
181	10
185	8
189	26
190	7
191	34
192	9
193	5
204	57
205	15
206	46
207	33
208	70
209	13
217	222
218	45
219	34
220	10
221	13
222	72
223	123
224	24
225	7
229	12
230	4
231	16
232	10
233	5
234	4
236	8
237	5
241	10
243	32
244	8
245	14
246	4
248	17
249	4
254	4
257	170
258	37
259	21
260	13
261	4
280	82
281	23
282	9
285	32
286	8
287	4
291	5
295	705
296	187
297	73
298	11
305	41
306	12
307	6
308	3
319	21
320	7
321	4
322	9
324	4
331	22
332	8
333	49
334	15
335	19
336	6
337	4
338	9
345	8
346	3
347	22
348	8
349	3
359	3
361	4
362	3
375	320
376	95
377	49
378	10
379	2
464	19
465	8
466	5
490	2
583	1
673	6
674	3
675	1
