Mass Spectrum: Hexadecanoic acid, 2-oxo-, methyl ester
Formula: C17H32O3
CAS: 55836-30-1
Molecular weight: 284
m/z	intensity
39	60
40	20
41	490
42	120
43	790
44	30
53	20
54	30
55	420
56	100
57	999
58	40
59	60
67	90
68	20
69	200
70	50
71	480
72	20
79	10
81	120
82	20
83	160
84	40
85	260
86	20
95	190
96	20
97	80
98	30
99	50
103	10
109	100
111	40
113	10
123	50
125	20
137	20
225	190
226	20
