Mass Spectrum: 3-Heptanone, 5-hydroxy-1,7-diphenyl-
Formula: C19H22O2
CAS: 55836-43-6
Molecular weight: 282
m/z	intensity
18	145
39	77
42	69
43	105
65	62
67	26
77	138
78	84
79	73
81	42
82	33
91	999
92	196
103	37
104	393
105	597
116	34
117	160
118	34
130	61
131	101
132	25
133	464
134	120
148	117
159	138
160	38
177	64
264	409
282	160
