Mass Spectrum: 1,2-Dibenzylpyrazolium bromide
Formula: C17H17BrN2
CAS: 55833-06-2
Molecular weight: 328
m/z	intensity
52	49
63	60
65	148
77	30
81	39
89	49
90	30
91	999
92	90
130	49
157	400
158	229
159	29
170	40
172	39
