Mass Spectrum: Androst-5-en-17-one, 3-methoxy-16,16-dimethyl-, (3.alpha.)-
Formula: C22H34O2
CAS: 55837-02-0
Molecular weight: 330
m/z	intensity
41	967
42	258
43	774
44	580
45	193
51	121
53	419
54	129
55	999
56	387
57	604
58	64
59	64
60	64
65	157
66	92
67	705
68	153
69	637
70	153
71	443
72	92
73	92
77	451
78	121
79	677
80	121
81	899
82	185
83	350
84	96
85	157
91	806
92	258
93	483
94	258
95	508
96	92
97	225
103	64
104	28
105	766
106	193
107	604
108	121
109	254
110	64
111	121
115	92
116	60
117	185
118	121
119	282
120	282
121	544
122	121
123	121
124	60
125	221
126	28
127	92
128	121
129	254
130	64
131	189
133	121
134	60
135	121
136	64
137	189
138	92
141	60
142	60
143	250
144	60
145	383
146	153
147	121
148	60
149	60
155	60
157	121
158	157
159	157
160	121
161	96
171	121
172	60
173	217
174	153
175	88
176	60
177	96
185	96
186	121
187	92
199	254
200	64
205	64
211	60
213	121
214	221
215	60
216	32
227	121
228	28
231	60
241	92
242	28
255	60
256	96
257	28
258	60
259	221
260	60
265	28
270	60
271	28
283	350
284	92
298	604
299	121
315	28
330	350
331	64
