Mass Spectrum: 1-Naphthalenesulfonamide, 5-(dimethylamino)-N-[4-[2-[[[5-(dimethylamino)-1-naphthalenyl]sulfonyl]amino]ethyl]phenyl]-
Formula: C32H34N4O4S2
CAS: 55836-94-7
Molecular weight: 602
m/z	intensity
42	260
50	27
51	42
60	47
63	42
64	116
77	89
106	999
107	146
115	83
118	39
119	65
120	88
126	57
127	158
128	135
129	109
130	31
131	59
139	21
140	30
141	33
142	23
143	23
144	24
153	31
154	186
155	159
156	72
157	45
158	16
166	13
167	81
168	400
169	440
170	999
171	680
172	102
173	14
174	31
183	12
184	40
185	30
186	65
187	16
202	30
203	50
204	17
217	13
218	16
219	23
230	27
231	16
232	24
233	31
234	70
235	63
236	17
249	14
250	63
251	13
262	23
263	100
264	20
275	30
276	15
301	29
339	19
340	19
367	14
368	44
369	82
370	28
371	10
602	182
603	71
604	30
605	12
