Mass Spectrum: Octaborane(12), dodecafluoro-
Formula: B8F12
CAS: 55836-56-1
Molecular weight: 316
m/z	intensity
60	360
71	250
79	320
90	170
101	999
112	160
120	549
131	50
139	20
150	50
161	270
169	200
180	300
199	140
229	20
248	130
267	10
