Mass Spectrum: 2,4,6(1H,3H,5H)-Pyrimidinetrione, 5-[3-chloro-2-[(trimethylsilyl)oxy]propyl]-1,3-dimethyl-5-(2-propenyl)-
Formula: C15H25ClN2O4Si
CAS: 55836-74-3
Molecular weight: 360
m/z	intensity
14	15
15	42
16	7
28	38
29	57
30	7
39	28
40	7
41	231
42	69
43	173
44	170
45	162
46	8
47	42
48	8
56	50
57	94
58	59
59	199
60	28
61	7
66	41
67	110
68	28
69	59
70	20
71	49
72	46
73	999
74	99
75	207
76	28
77	7
91	36
92	20
93	201
94	41
95	74
96	15
100	41
101	205
102	41
103	21
104	7
108	32
109	67
110	32
111	32
112	45
113	32
114	7
115	81
116	28
117	70
118	8
149	403
150	88
151	135
152	29
166	15
167	16
168	24
169	54
170	28
171	7
180	17
181	48
182	33
183	22
184	7
193	57
194	33
195	110
196	197
197	33
198	8
201	11
202	12
203	107
204	21
205	22
206	32
207	46
208	8
219	5
220	21
221	231
222	50
223	17
224	5
233	11
234	22
235	54
236	20
237	12
239	15
240	20
241	73
242	21
243	11
252	8
253	16
254	16
255	107
256	32
257	12
266	7
267	82
268	33
269	164
270	81
271	21
272	7
280	7
281	30
282	9
283	28
284	9
287	4
288	5
289	99
290	20
291	28
292	15
293	11
301	4
302	4
303	90
304	41
305	46
306	15
307	7
308	7
309	30
310	18
311	526
312	99
313	20
314	7
322	4
323	8
324	291
325	28
326	5
344	28
345	750
346	82
347	246
348	29
360	48
361	13
362	16
363	5
