Mass Spectrum: 16,28-Secosolanid-1,4-dien-3-one, (22.xi.,25.xi.)-
Formula: C27H41NO
CAS: 55836-58-3
Molecular weight: 395
m/z	intensity
70	14
81	14
91	26
98	999
99	70
105	11
107	11
119	9
121	44
122	15
124	8
138	20
140	54
147	11
150	5
159	5
168	5
173	5
352	4
368	18
369	5
376	6
396	54
397	16
