Mass Spectrum: Androstan-17-one, 3-methoxy-16,16-dimethyl-, (3.beta.,5.alpha.)-
Formula: C22H36O2
CAS: 55837-01-9
Molecular weight: 332
m/z	intensity
41	999
42	145
43	701
44	181
45	153
50	40
51	40
52	28
53	266
54	96
55	967
56	233
57	475
58	68
59	64
60	64
65	104
66	56
67	685
68	169
69	584
70	141
71	314
72	64
73	104
77	290
78	72
79	588
80	145
81	741
82	169
83	306
84	112
85	137
91	467
92	121
93	532
94	185
95	588
96	141
97	241
98	76
99	48
101	28
103	28
104	24
105	362
106	314
107	798
108	895
109	467
110	133
111	161
112	32
113	32
115	48
116	24
117	80
118	48
119	250
120	153
121	254
122	161
123	169
124	68
125	137
126	36
127	24
128	28
129	48
130	20
131	96
132	40
133	161
134	104
135	137
136	56
137	84
138	274
139	100
140	16
141	16
142	16
143	40
144	20
145	121
146	52
147	185
148	80
149	84
150	28
151	88
152	32
153	24
157	28
158	12
159	121
160	68
161	137
162	76
163	64
164	32
165	48
171	28
173	80
174	60
175	108
176	40
177	48
178	28
179	36
180	12
185	32
187	60
188	28
189	28
190	375
191	116
192	36
193	28
199	28
201	250
202	44
203	56
204	12
205	12
213	40
214	16
215	96
216	620
217	173
218	88
219	36
227	16
228	28
229	80
230	20
231	28
232	12
233	60
234	24
239	24
243	16
244	16
245	16
246	36
247	44
248	459
249	100
257	48
259	12
260	64
261	36
266	12
272	68
273	24
275	16
276	24
285	32
289	36
299	12
300	56
301	12
314	44
317	52
332	572
333	121
334	24
