Mass Spectrum: 8H-Naphtho[1,2-b]pyran-8-one, 3-ethyldodecahydro-3,4a,7,7,10a-pentamethyl-, [3R-(3.alpha.,4a.beta.,6a.alpha.,10a.beta.,10b.alpha.)]-
Formula: C20H34O2
CAS: 55836-76-5
Molecular weight: 306
m/z	intensity
15	6
18	6
20	2
26	6
27	69
28	20
29	265
30	4
31	12
39	81
40	28
41	497
42	106
43	999
44	36
45	26
51	16
52	6
53	136
54	32
55	608
56	44
57	244
58	57
59	28
60	2
65	44
66	20
67	346
68	102
69	289
70	61
71	106
72	14
73	8
77	106
78	16
79	179
80	30
81	293
82	85
83	163
84	16
85	44
91	140
92	20
93	187
94	36
95	220
96	53
97	79
98	12
99	53
100	2
103	10
104	2
105	100
106	20
107	187
108	57
109	193
110	44
111	57
112	4
113	26
115	20
116	2
117	16
118	4
119	163
120	65
121	191
122	57
123	130
124	18
125	59
126	4
127	14
128	2
129	6
131	16
132	6
133	77
134	20
135	122
136	26
137	65
138	12
139	65
140	6
141	6
143	6
145	34
146	6
147	51
148	20
149	77
150	24
151	79
152	16
153	26
154	6
157	6
159	36
160	6
161	69
162	16
163	53
164	20
165	30
166	8
167	8
168	8
171	16
173	32
174	4
175	38
176	6
177	28
178	6
179	26
180	6
181	6
185	24
186	4
187	16
188	6
189	32
190	12
191	51
192	6
193	14
199	12
201	69
202	10
203	34
204	6
205	28
206	49
207	44
208	6
209	4
215	20
217	44
218	16
219	28
220	2
221	16
231	36
232	6
233	2
234	4
235	8
241	83
242	20
243	75
244	18
245	12
255	16
257	20
259	281
260	53
261	44
262	6
273	57
274	12
275	8
277	975
278	193
279	71
280	6
291	138
292	32
293	24
