Mass Spectrum: Androstan-17-one, 3-methoxy-16,16-dimethyl-, (3.alpha.,5.alpha.)-
Formula: C22H36O2
CAS: 55836-75-4
Molecular weight: 332
m/z	intensity
41	951
42	104
43	427
44	96
45	149
46	4
47	32
48	16
49	8
50	32
51	44
52	24
53	201
54	60
55	685
56	137
57	201
58	52
59	32
63	8
64	12
65	88
66	48
67	604
68	108
69	346
70	52
71	217
72	48
73	64
74	8
77	254
78	68
79	572
80	112
81	665
82	100
83	177
84	68
85	60
89	12
91	471
92	108
93	540
94	177
95	584
96	96
97	141
98	44
99	20
101	4
103	24
104	32
105	338
106	310
107	782
108	999
109	370
110	88
111	72
112	8
113	8
115	24
116	12
117	72
118	44
119	225
120	149
121	217
122	129
123	129
124	40
125	100
126	12
128	12
129	28
130	12
131	80
132	40
133	173
134	108
135	157
136	52
137	68
138	254
139	72
140	4
141	4
142	4
143	28
144	12
145	153
146	60
147	233
148	100
149	76
150	20
151	76
152	32
153	8
157	20
158	8
159	137
160	88
161	141
162	64
163	52
164	24
165	32
171	8
173	88
174	72
175	100
176	56
177	44
178	28
179	32
185	16
187	88
188	36
189	28
190	379
191	100
192	28
193	16
199	8
200	8
201	411
202	80
203	64
204	16
205	16
213	40
214	8
215	100
216	774
217	237
218	48
219	28
227	16
228	36
229	121
230	36
231	28
233	181
234	52
243	28
244	16
245	24
246	20
247	40
248	782
249	161
250	12
257	52
258	12
259	8
260	76
261	32
262	4
267	28
271	24
272	52
273	16
275	20
282	20
283	12
285	100
286	20
289	32
290	4
299	20
300	104
301	36
302	4
303	12
304	8
314	52
315	16
317	68
318	36
319	4
332	741
333	161
334	20
