Mass Spectrum: Borinic acid, diethyl-, 1-methyl-2-propynyl ester
Formula: C8H15BO
CAS: 55848-32-3
Molecular weight: 138
m/z	intensity
27	247
28	57
29	176
30	2
31	0
36	3
37	13
38	21
39	51
40	26
41	77
42	14
43	18
44	1
45	0
46	0
48	0
49	3
50	31
51	57
52	69
53	999
54	82
55	29
56	99
57	383
58	8
59	1
60	0
61	0
62	0
63	1
64	1
65	6
66	4
67	102
68	11
69	24
70	1
71	1
75	0
76	0
77	3
78	1
79	9
80	83
81	339
82	16
83	1
87	0
91	1
92	0
93	0
94	4
95	17
96	1
97	1
98	0
103	0
105	3
106	0
107	1
108	15
109	61
110	4
111	0
112	0
113	1
120	0
121	0
122	0
123	2
126	0
135	4
137	0
138	2
