Mass Spectrum: 2,5,9,13-Tetramethyl-tetradeca-4,8,12-trienoic acid, methyl ester
Formula: C19H32O2
CAS: 55844-49-0
Molecular weight: 292
m/z	intensity
25	1
26	7
27	65
28	19
29	120
30	3
31	13
33	1
34	0
35	1
36	0
37	1
38	2
39	57
40	20
41	388
42	27
43	74
44	6
45	16
46	1
47	3
48	1
49	0
50	1
51	8
52	5
53	87
54	15
55	224
56	32
57	206
58	10
59	77
60	3
61	1
63	2
64	1
65	16
66	12
67	118
68	122
69	999
70	67
71	16
72	13
73	22
74	6
75	5
76	0
77	34
78	7
79	49
80	32
81	355
82	54
83	36
84	6
85	161
86	10
87	13
88	138
89	10
90	1
91	32
92	21
93	131
94	24
95	291
96	59
97	23
98	4
99	172
100	11
101	12
102	2
103	3
104	1
105	22
106	5
107	59
108	25
109	71
110	9
111	7
112	3
113	81
114	10
115	98
116	8
117	12
118	1
119	20
120	6
121	83
122	26
123	118
124	22
125	11
126	2
127	7
128	2
129	5
130	1
131	2
132	3
133	24
134	8
135	120
136	192
137	104
138	11
139	14
140	2
141	31
142	3
143	4
144	1
145	93
146	7
147	6
148	3
149	33
150	7
151	4
152	1
153	4
154	6
155	118
156	18
157	2
159	2
161	10
162	2
163	30
164	6
165	2
166	1
167	2
168	60
169	14
170	1
171	5
172	0
173	39
174	4
175	4
176	1
177	13
178	3
179	2
180	1
181	22
182	3
183	1
184	1
185	0
187	1
189	3
190	1
191	39
192	7
193	6
194	1
195	0
196	0
198	0
199	0
201	0
203	1
204	2
205	4
207	3
208	25
209	9
210	8
211	1
217	2
221	4
222	2
223	37
224	5
230	1
232	0
233	1
235	0
236	2
237	0
240	0
242	1
243	3
244	0
245	0
248	0
249	14
250	2
260	0
261	6
262	1
277	2
278	0
292	35
293	7
294	0
