Mass Spectrum: Hydroxy-(3-aminopropyl)butylborane
Formula: C7H18BNO
CAS: 5584-92-9
Molecular weight: 143
m/z	intensity
29	129
31	69
39	199
41	439
42	559
43	159
53	89
54	179
55	289
56	69
59	99
66	99
67	179
68	509
69	109
70	59
82	269
83	999
84	69
85	79
86	309
95	59
96	219
97	89
125	49
