Mass Spectrum: 1H-Thiepine, 2,3,6,7-tetrahydro-4,5-didehydro-3,3,6,6-tetramethyl-, 1-oxide
Formula: C10H16OS
CAS: 55849-07-5
Molecular weight: 184
m/z	intensity
33	6
34	9
35	3
36	0
37	5
38	32
39	923
40	96
41	999
42	78
43	285
44	16
45	98
46	30
47	25
48	24
49	5
50	52
51	295
52	91
53	315
54	47
55	320
56	136
57	34
58	25
59	77
60	18
61	16
62	31
63	96
64	25
65	223
66	42
67	324
68	80
69	83
70	48
71	32
72	9
73	19
74	9
75	20
76	14
77	545
78	84
79	653
80	222
81	94
82	52
83	143
84	18
85	255
86	28
87	57
88	14
89	27
90	8
91	745
92	113
93	301
94	43
95	215
96	44
97	40
98	12
99	66
100	160
101	74
102	16
103	52
104	42
105	364
106	92
107	514
108	55
109	22
110	5
111	48
112	10
113	63
114	6
115	23
116	15
117	13
118	3
119	59
120	23
121	327
122	105
123	68
124	8
125	32
126	3
127	23
128	85
129	72
130	59
131	12
132	6
133	10
134	4
135	12
136	5
137	24
138	6
139	9
140	0
141	11
142	1
143	3
144	78
145	11
146	18
147	13
148	2
149	24
150	2
151	32
152	51
153	35
154	6
155	7
156	0
157	2
158	0
161	0
162	0
163	0
166	0
167	78
168	17
169	73
170	10
171	4
172	0
183	10
184	78
185	54
186	11
187	4
