Mass Spectrum: 7-Azabicyclo[4.1.0]heptane, 2-methyl-5-(1-methylethyl)-
Formula: C10H19N
CAS: 55854-39-2
Molecular weight: 153
m/z	intensity
25	5
26	8
27	85
28	137
29	63
30	162
31	5
32	18
37	10
38	6
39	121
40	22
41	238
42	57
43	87
44	44
45	3
48	6
50	10
51	21
52	16
53	52
54	42
55	212
56	162
57	44
58	11
59	5
62	6
65	36
66	20
67	178
68	202
69	95
70	82
71	25
72	6
77	62
78	18
79	94
80	50
81	246
82	151
83	58
84	20
85	6
90	7
91	91
92	16
93	263
94	111
95	364
96	145
97	20
98	68
101	6
105	19
106	20
107	22
108	76
109	58
110	999
111	182
112	16
115	7
117	14
119	20
120	8
121	21
122	11
123	31
124	19
125	6
130	13
132	15
133	4
134	43
135	16
136	32
137	10
138	206
139	26
140	5
144	10
147	10
149	20
150	7
151	10
152	10
153	15
154	9
