Mass Spectrum: Cyclopentaneoctanoic acid, 3,5-bis(acetyloxy)-.epsilon.-(methoxyimino)-2-(3-methoxy-3-oxopropyl)-, methyl ester
Formula: C23H37NO9
CAS: 55869-54-0
Molecular weight: 471
m/z	intensity
41	49
42	67
43	515
44	64
45	49
50	9
52	9
53	9
54	28
55	124
56	28
57	132
58	9
59	41
60	41
66	11
67	24
68	24
69	37
70	37
71	66
72	17
73	147
74	62
75	26
76	184
77	5
78	5
79	34
80	54
81	49
82	66
83	111
84	28
85	39
86	18
87	766
88	56
89	22
90	11
91	64
92	49
93	113
94	81
95	49
96	50
97	45
98	11
99	113
100	220
101	115
102	18
103	18
104	50
105	279
106	62
107	64
108	126
109	71
110	69
111	26
112	60
113	18
114	94
115	999
116	67
117	37
118	83
119	196
120	75
121	54
122	30
123	37
124	26
125	41
126	39
127	184
128	41
129	41
130	18
131	41
132	62
133	49
134	67
135	84
136	56
137	28
138	37
139	26
140	28
141	41
142	28
143	41
144	7
145	49
146	117
147	200
148	49
149	18
150	37
151	28
152	188
153	50
154	30
155	320
156	67
157	47
158	17
159	47
160	28
161	18
162	18
163	75
164	84
165	124
166	67
167	28
168	237
169	52
170	94
171	37
172	113
173	49
174	83
175	26
176	17
177	18
178	226
179	377
180	84
181	34
182	47
183	47
184	35
185	37
186	26
187	471
188	124
189	35
190	47
191	9
192	47
193	26
194	37
195	124
196	41
197	145
198	75
199	64
200	784
201	132
202	28
203	22
204	34
205	118
206	86
210	7
211	17
212	37
213	49
214	30
215	37
216	26
217	28
218	49
219	84
220	433
221	249
222	81
223	49
224	41
225	18
226	30
227	30
228	37
229	28
230	18
231	30
232	79
233	49
234	67
235	26
236	54
237	41
238	67
239	37
240	24
241	30
242	18
243	28
244	28
245	47
246	75
247	28
248	37
249	17
250	79
251	184
252	147
253	11
254	30
255	15
256	30
257	90
258	28
259	37
260	37
261	30
262	39
263	15
264	156
265	49
266	34
268	49
270	37
271	26
272	26
273	37
274	26
275	18
276	9
277	18
278	45
279	37
280	49
282	39
283	17
285	11
286	17
287	20
288	66
289	24
290	22
291	20
292	24
293	30
294	17
295	67
296	49
297	17
298	28
299	24
300	13
301	17
302	18
303	26
304	37
305	56
306	47
307	18
308	37
309	15
310	28
311	54
312	405
313	86
314	26
315	9
316	17
317	7
318	47
319	35
320	830
321	207
322	75
323	26
324	132
325	41
326	15
328	56
329	26
330	5
331	9
332	15
333	5
336	45
337	15
338	113
339	45
340	9
341	17
343	17
344	17
345	17
346	17
347	7
348	17
349	26
350	34
351	143
352	275
353	86
354	17
357	37
358	5
360	18
366	18
367	9
368	94
369	9
370	18
371	124
372	18
373	18
377	18
378	9
379	15
380	113
381	28
382	37
383	7
384	84
385	28
396	26
397	9
398	186
399	49
400	18
408	18
409	7
410	17
411	49
412	507
413	156
414	41
415	18
416	11
418	28
419	18
429	84
430	32
440	101
451	9
471	237
472	54
473	17
