Mass Spectrum: 4-Benzyloxyphenylacetone
Formula: C16H16O2
CAS: 5586-92-5
Molecular weight: 240
m/z	intensity
39	60
43	224
51	40
52	29
63	32
64	13
65	229
77	38
78	45
79	6
89	55
90	20
91	999
92	152
106	8
107	47
108	3
115	2
133	1
141	1
149	1
152	2
153	2
165	3
166	1
167	2
178	1
181	3
182	1
197	198
198	33
199	3
240	144
241	25
