Mass Spectrum: Trifluoromethyldisulfane
Formula: CHF3S2
CAS: 55860-39-4
Molecular weight: 134
m/z	intensity
31	72
32	293
33	40
50	74
63	206
64	122
65	185
66	15
67	18
69	435
76	34
82	999
83	34
101	25
102	132
114	238
115	39
116	22
133	25
134	525
136	56
