Mass Spectrum: Cyclohexanol, 4-ethyl-4-methyl-3-(1-methylethyl)-, (1.alpha.,3.alpha.,4.beta.)-
Formula: C12H24O
CAS: 55869-52-8
Molecular weight: 184
m/z	intensity
41	669
43	579
55	809
57	400
67	460
69	579
81	999
83	380
84	869
95	519
123	809
137	579
155	240
166	15
