Mass Spectrum: Butane, 3-methyl-1-(methylsulfinyl)-
Formula: C6H14OS
CAS: 55860-10-1
Molecular weight: 134
m/z	intensity
24	0
26	6
27	159
28	10
29	169
30	3
31	5
33	1
34	2
35	5
37	0
38	1
39	91
40	4
41	408
42	48
43	999
44	26
45	21
46	13
47	41
48	9
49	5
50	2
51	5
52	1
53	38
54	5
55	278
56	14
57	5
58	2
59	6
60	1
61	62
62	2
63	84
64	216
65	23
66	9
67	3
68	0
69	29
70	44
71	203
72	12
73	0
74	1
75	5
76	0
77	0
78	43
79	2
80	1
85	1
87	0
89	0
90	0
91	4
92	0
93	0
101	0
103	0
105	0
117	59
118	6
119	5
120	0
121	0
134	21
135	10
136	1
