Mass Spectrum: 2,5-Methano-1H-inden-7-ol, octahydro-
Formula: C10H16O
CAS: 55870-65-0
Molecular weight: 152
m/z	intensity
26	5
27	129
28	12
29	101
30	3
31	30
37	1
38	8
39	233
40	35
41	317
42	33
43	67
44	13
45	7
47	0
48	0
49	0
50	12
51	56
52	25
53	105
54	65
55	142
56	106
57	74
58	6
59	1
60	1
61	1
62	3
63	14
64	5
65	79
66	264
67	308
68	39
69	35
70	87
71	18
72	2
73	0
74	1
75	2
76	2
77	186
78	199
79	629
80	370
81	125
82	14
83	29
84	6
85	1
86	0
89	3
90	2
91	386
92	999
93	413
94	37
95	87
96	18
97	13
98	1
102	1
103	8
104	5
105	167
106	119
107	28
108	21
109	24
110	5
111	2
112	0
113	0
114	0
115	4
116	2
117	7
118	2
119	699
120	28
121	8
122	1
123	5
124	1
125	0
127	0
128	1
129	1
130	0
131	1
132	1
133	19
134	913
135	110
136	6
137	1
150	2
151	11
152	3
153	0
