Mass Spectrum: 1,4-Dihydro-2-methylbenzoic acid
Formula: C8H10O2
CAS: 55886-48-1
Molecular weight: 138
m/z	intensity
41	108
42	18
43	58
44	30
45	131
46	9
47	3
49	10
50	69
51	167
52	53
53	60
54	9
55	35
56	15
57	39
58	5
59	9
60	14
61	14
62	34
63	85
64	20
65	182
66	23
67	22
68	7
69	19
70	8
71	14
72	4
73	6
74	11
75	9
76	12
77	660
78	106
79	86
80	7
81	12
82	6
83	10
84	8
85	12
86	9
87	6
88	8
89	32
90	43
91	728
92	139
93	999
94	86
95	22
96	4
97	9
98	3
99	4
100	2
101	2
105	11
106	2
107	5
108	1
109	6
110	7
111	7
112	1
121	4
122	1
123	20
124	4
125	3
126	1
127	1
128	1
129	3
131	1
133	1
135	4
136	34
137	10
138	206
139	24
140	4
141	1
