Mass Spectrum: Glycine, N-(2-thienylcarbonyl)-, trimethylsilyl ester
Formula: C10H15NO3SSi
CAS: 55887-50-8
Molecular weight: 257
m/z	intensity
14	3
15	15
26	5
27	9
28	38
29	16
30	6
31	7
37	4
38	13
39	230
40	9
41	4
42	10
43	54
44	30
45	179
46	12
47	55
48	3
49	3
50	6
51	8
52	3
53	13
54	3
55	9
56	13
57	37
58	43
59	39
60	11
61	33
62	3
63	2
65	3
66	3
67	3
69	8
70	7
71	5
72	30
73	774
74	75
75	205
76	16
77	22
78	3
79	3
81	9
82	18
83	82
84	14
85	9
86	12
87	7
88	15
89	3
91	4
92	13
93	2
95	4
96	10
97	28
98	7
99	16
100	8
101	6
102	15
103	3
105	17
106	4
109	6
110	93
111	999
112	76
113	51
114	5
115	4
116	28
117	9
118	2
122	6
123	22
124	12
125	4
127	5
129	3
130	6
131	3
133	5
139	6
140	25
141	50
142	8
143	6
147	33
148	6
149	4
150	2
154	17
155	11
156	6
167	9
168	5
169	7
170	3
180	55
181	9
183	27
184	22
185	9
186	3
196	4
198	25
199	4
200	2
206	8
207	3
212	437
213	192
214	61
215	17
216	3
239	13
240	4
242	94
243	16
244	9
257	13
258	3
