Mass Spectrum: Cyclohexane, 1-chloro-3-fluoro-
Formula: C6H10ClF
CAS: 55887-79-1
Molecular weight: 136
m/z	intensity
39	180
41	330
53	170
54	499
55	240
59	280
67	180
69	60
72	400
73	160
79	549
80	999
81	999
82	130
85	290
99	200
100	509
101	519
136	30
138	10
