Mass Spectrum: Ethyl trifluoromethyl trisulfide
Formula: C3H5F3S3
CAS: 55882-01-4
Molecular weight: 194
m/z	intensity
29	999
30	34
32	165
33	25
35	140
45	231
46	79
47	25
50	21
51	12
58	119
59	100
60	42
61	49
64	501
65	49
69	333
82	32
83	26
91	55
93	138
95	11
97	59
99	8
101	24
125	38
127	7
129	7
133	23
165	10
166	15
194	263
196	50
