Mass Spectrum: Silanamine, N-[2-[2-methoxy-4-[(trimethylsilyl)oxy]phenyl]ethyl]-1,1,1-trimethyl-
Formula: C15H29NO2Si2
CAS: 55887-47-3
Molecular weight: 311
m/z	intensity
30	22
43	20
44	16
45	68
58	19
59	56
72	16
73	463
74	43
75	30
86	13
87	10
89	10
102	999
103	104
104	43
133	15
149	16
179	37
180	22
209	24
210	39
296	37
297	10
