Mass Spectrum: Propanedioic acid, (2-phenylethyl)-, bis(trimethylsilyl) ester
Formula: C17H28O4Si2
CAS: 55887-54-2
Molecular weight: 352
m/z	intensity
15	10
17	13
18	50
28	64
29	10
39	13
43	32
44	41
45	158
46	12
47	25
51	11
55	11
58	15
59	28
61	12
72	21
73	999
74	92
75	122
76	12
77	31
78	12
89	22
91	42
103	326
104	32
105	11
115	43
117	147
118	68
119	12
131	136
132	16
133	35
135	11
139	39
145	29
146	137
147	338
148	61
149	34
175	13
191	16
205	61
206	12
219	28
220	18
293	151
294	43
295	18
308	154
309	47
310	18
337	23
