Mass Spectrum: Pipecolic acid, TMS derivative
Formula: C9H19NO2Si
CAS: 55887-52-0
Molecular weight: 201
m/z	intensity
15	1
26	1
27	9
28	32
29	14
30	17
31	2
39	11
40	2
41	24
42	27
43	17
44	7
45	45
46	3
47	21
48	1
49	1
50	1
51	2
52	2
53	9
54	23
55	68
56	148
57	15
58	12
59	13
60	4
61	14
62	1
63	1
65	2
66	1
67	16
68	13
69	4
70	3
71	1
72	4
73	59
74	10
75	99
76	8
77	4
79	1
80	6
81	2
82	41
84	999
85	84
86	5
87	1
88	2
89	1
92	3
94	1
97	1
98	1
99	1
100	1
101	2
102	2
103	59
104	5
105	2
110	2
111	1
112	3
113	1
114	1
116	2
117	3
128	2
129	6
130	3
131	1
140	8
141	1
142	2
143	1
144	2
145	1
156	2
157	2
158	13
159	2
160	1
168	6
169	1
170	1
171	2
184	1
186	66
187	9
188	3
200	1
201	3
202	1
