Mass Spectrum: Cyclobutane, 1-bromo-2-chloro-
Formula: C4H6BrCl
CAS: 55887-83-7
Molecular weight: 168
m/z	intensity
39	180
41	140
51	20
52	30
53	699
54	180
61	40
62	300
63	40
64	90
75	589
77	190
88	420
89	999
90	180
91	330
140	70
142	90
144	10
