Mass Spectrum: 2-Furoic acid, TMS derivative
Formula: C8H12O3Si
CAS: 55887-53-1
Molecular weight: 184
m/z	intensity
15	3
26	1
27	4
28	6
29	11
30	1
31	3
37	8
38	24
39	118
40	4
41	4
42	6
43	43
44	11
45	80
46	6
47	23
48	1
49	2
50	2
51	9
52	1
53	15
54	3
55	10
56	3
57	6
58	13
59	36
60	6
61	7
63	1
65	7
66	7
67	30
68	3
69	18
70	4
71	10
72	7
73	53
74	9
75	33
76	3
77	4
79	2
81	5
82	3
83	8
84	26
86	1
87	1
93	1
95	315
96	23
97	28
98	19
99	31
100	3
101	2
109	7
110	2
111	12
112	4
113	2
123	1
125	999
126	119
127	40
128	3
129	1
130	1
139	2
140	1
153	1
155	2
156	5
167	1
169	474
170	62
171	21
172	2
183	2
184	81
185	12
186	4
