Mass Spectrum: Cyclohexane, 1-chloro-4-fluoro-
Formula: C6H10ClF
CAS: 55887-80-4
Molecular weight: 136
m/z	intensity
39	117
41	425
53	97
54	487
55	282
59	338
67	246
69	61
72	441
73	133
79	353
80	999
81	758
82	87
85	461
99	117
100	512
101	287
116	56
118	15
136	34
138	12
