Mass Spectrum: Methoxyindoleacetic acid, 2TMS derivative
Formula: C17H27NO3Si2
CAS: 55887-55-3
Molecular weight: 349
m/z	intensity
14	5
15	16
28	51
29	13
31	6
32	6
43	45
44	34
45	207
46	14
47	20
55	7
57	10
58	12
59	31
61	9
63	6
72	12
73	999
74	88
75	96
76	7
77	8
89	15
90	4
101	5
115	7
116	15
117	10
131	6
133	6
144	16
145	8
147	38
148	7
159	15
160	14
161	4
167	9
175	9
186	13
202	25
203	6
216	14
217	11
218	7
230	23
232	766
233	157
234	43
235	6
268	2
290	9
298	1
306	22
307	6
334	33
335	10
349	153
350	45
351	18
352	4
