Mass Spectrum: Cyclohexane, 1,3-dichloro-
Formula: C6H10Cl2
CAS: 55887-78-0
Molecular weight: 152
m/z	intensity
39	10
41	50
53	20
54	55
62	10
65	5
67	50
75	30
76	10
77	20
78	35
79	75
80	320
81	999
82	70
88	25
90	10
116	80
117	40
118	35
119	10
152	14
154	10
156	1
