Mass Spectrum: 3,3-Dimethylglutaric acid, 2TMS derivative
Formula: C13H28O4Si2
CAS: 55887-57-5
Molecular weight: 304
m/z	intensity
35	1
38	1
39	16
40	11
41	34
42	11
43	51
44	36
45	104
46	6
47	51
48	3
49	14
50	1
51	1
52	2
53	9
54	3
55	121
56	21
57	10
58	14
59	27
60	6
61	30
62	2
63	4
64	1
65	0
66	9
67	4
68	1
69	25
70	8
71	5
72	65
73	999
74	98
75	245
76	23
77	114
78	8
79	5
80	0
81	7
82	17
83	935
84	52
85	11
86	1
87	2
88	9
89	7
90	1
91	2
92	4
93	3
94	0
95	2
96	3
97	11
98	1
99	7
100	1
101	16
102	2
103	3
104	0
105	1
109	26
110	2
111	2
112	4
113	56
114	8
115	6
116	46
117	212
118	22
119	10
120	0
125	12
126	1
127	3
128	2
129	46
130	7
131	17
132	11
133	34
134	5
135	3
137	33
138	2
139	0
141	1
142	7
143	16
144	26
145	4
146	1
147	750
148	121
149	76
150	9
151	3
155	39
156	13
157	125
158	15
159	7
160	1
161	1
162	4
163	2
164	0
169	0
170	2
171	47
172	10
173	209
174	28
175	9
176	0
183	1
185	2
186	211
187	41
188	10
189	11
190	2
191	3
199	146
200	20
201	7
204	76
205	17
206	6
207	1
214	55
215	33
216	7
217	12
218	2
219	1
229	0
231	3
232	0
233	3
234	0
235	0
245	11
246	2
247	1
261	39
262	8
263	3
289	335
290	83
291	34
292	4
293	0
304	4
305	1
