Mass Spectrum: Propanoic acid, 3-[methyl[2-oxo-2-[(trimethylsilyl)oxy]ethyl]amino]-3-oxo-, trimethylsilyl ester
Formula: C12H25NO5Si2
CAS: 55887-45-1
Molecular weight: 319
m/z	intensity
14	11
15	35
26	13
27	40
28	85
29	40
30	89
31	10
41	19
42	15
43	69
44	58
45	199
46	14
47	64
55	67
56	107
57	58
58	39
59	67
60	14
61	45
68	46
69	17
72	43
73	999
74	97
75	360
76	27
77	21
80	15
83	35
84	15
85	11
86	66
87	19
88	17
95	14
100	28
101	33
102	100
103	18
104	27
112	15
113	15
115	10
116	16
117	27
129	45
130	63
131	35
132	14
133	24
142	50
143	12
144	10
146	11
147	135
148	24
149	31
156	16
157	51
158	311
159	56
160	17
170	29
173	62
174	11
176	18
184	14
185	42
186	60
187	11
188	13
191	12
202	13
206	20
214	16
260	74
261	17
275	54
276	25
304	125
305	29
306	14
