Mass Spectrum: (4'S,4'Ar,5'R,8'aS)-spiro-[1,3-dithiolan-2,1'-(4'-isopropyl-4'a,5'-dimethyl-(1'H)-octahydronaphthalene)]
Formula: C17H30S2
CAS: 55898-00-5
Molecular weight: 298
m/z	intensity
41	610
43	390
45	390
47	570
55	290
57	590
59	600
60	630
61	660
67	100
69	110
71	100
74	390
75	999
81	260
89	500
90	280
95	250
105	230
109	230
120	260
135	120
137	300
150	500
152	150
163	150
191	50
205	210
206	200
220	70
238	30
256	30
298	30
