Mass Spectrum: (4S,4aR,5R,8aS)-4-isopropyl-4a,5-dimethyldecahydronaphthalen-1-one
Formula: C15H26O
CAS: 55897-99-9
Molecular weight: 222
m/z	intensity
41	600
43	250
55	550
67	320
69	490
81	460
84	450
95	650
97	380
109	999
110	650
111	480
123	250
137	700
139	270
152	530
161	150
165	60
179	190
180	190
189	60
204	60
207	160
222	450
