Mass Spectrum: Bicyclo[2.2.1]heptane, 2-chloro-1,7,7-trimethyl-, exo-
Formula: C10H17Cl
CAS: 559-45-5
Molecular weight: 172
m/z	intensity
39	230
40	40
41	350
42	20
43	50
44	50
50	20
51	60
52	30
53	130
54	20
55	110
56	20
57	20
65	50
66	50
67	200
68	230
69	80
70	30
77	150
78	30
79	120
80	80
81	120
82	50
83	20
89	20
90	10
91	120
92	100
93	999
94	130
95	450
96	30
105	30
106	20
107	230
108	70
109	30
110	90
111	20
121	770
122	60
123	20
128	20
130	20
136	480
137	60
157	50
159	20
172	20
174	10
