Mass Spectrum: 1,3-Hexanedione, 4,4,5,5,6,6,6-heptafluoro-1-(2-thienyl)-
Formula: C10H5F7O2S
CAS: 559-94-4
Molecular weight: 322
m/z	intensity
23	1
27	4
29	8
31	10
37	9
38	23
39	147
40	8
41	15
42	28
44	3
45	102
47	8
49	4
50	24
51	22
52	7
53	57
54	4
55	5
57	55
58	41
59	6
61	7
62	17
63	27
64	8
65	24
66	6
67	3
68	6
69	999
70	48
71	20
72	1
73	6
74	7
75	19
77	42
79	5
81	41
82	41
83	80
84	23
85	62
86	4
87	4
91	45
92	5
93	9
94	2
95	19
96	26
97	45
98	5
99	2
100	52
108	35
109	46
111	699
112	46
113	37
114	3
119	39
120	14
122	3
123	5
124	12
125	3
131	4
139	2
141	9
146	10
150	4
153	792
154	71
155	45
156	6
163	2
169	28
322	185
323	23
324	10
