Mass Spectrum: Ethyl 4-amino-1H-pyrazole-3-carboxylate
Formula: C6H9N3O2
CAS: 55904-61-5
Molecular weight: 155
m/z	intensity
35	2
36	5
37	1
38	2
39	119
40	101
41	124
42	80
43	150
44	119
45	354
46	61
47	18
48	6
49	6
50	8
51	50
52	378
53	399
54	361
55	327
56	256
57	59
58	3
60	2
61	3
62	14
63	3
64	10
65	13
66	11
67	19
68	47
69	21
70	13
71	16
72	234
73	126
74	6
75	2
76	17
77	2
78	6
79	2
80	19
81	67
82	85
83	62
84	8
85	9
86	2
88	1
89	1
94	4
95	2
96	1
97	1
98	2
99	7
100	129
101	7
108	16
109	999
110	418
111	18
112	3
116	2
122	7
124	2
126	13
127	424
128	31
129	3
140	1
154	5
155	476
156	42
157	2
