Mass Spectrum: 7-Azabicyclo[4.1.0]heptane, 2,4,4-trimethyl-
Formula: C9H17N
CAS: 55903-16-7
Molecular weight: 139
m/z	intensity
26	18
27	84
28	263
29	95
30	74
32	15
38	13
39	103
40	24
41	226
42	58
43	95
44	53
45	5
47	8
50	5
51	21
52	15
53	68
54	79
55	163
56	263
57	100
63	37
64	18
65	176
66	999
67	105
68	32
69	5
77	29
78	21
79	74
80	68
81	134
82	315
83	578
84	79
85	5
90	5
91	55
92	16
93	42
94	50
95	100
96	158
97	47
98	8
101	5
102	8
103	10
104	5
105	34
106	21
107	121
108	47
109	129
110	21
111	216
112	32
117	5
118	5
119	10
120	16
121	37
122	45
123	11
124	289
125	37
134	5
135	16
136	5
137	18
138	13
139	10
140	8
