Mass Spectrum: 1,2-Cyclohexanedimethanol, 3-(acetyloxy)-1,2-dimethyl-, diacetate
Formula: C16H26O6
CAS: 55905-48-1
Molecular weight: 314
m/z	intensity
41	110
43	999
55	110
67	70
69	80
79	50
81	100
82	120
83	50
93	90
94	50
95	110
97	50
107	70
108	60
109	140
121	200
122	100
123	70
134	120
139	150
152	120
