Mass Spectrum: 7-Azabicyclo[4.1.0]heptane, 2-methyl-
Formula: C7H13N
CAS: 55903-15-6
Molecular weight: 111
m/z	intensity
26	23
27	108
28	375
29	91
30	114
31	6
32	19
36	6
37	9
38	17
39	172
40	37
41	266
42	125
43	219
44	45
47	17
50	17
51	31
52	25
53	69
54	89
55	84
56	172
57	59
58	16
59	6
62	8
63	11
64	5
65	55
66	25
67	235
68	657
69	100
70	95
71	6
73	5
74	8
77	63
78	16
79	219
80	72
81	235
82	250
83	250
84	20
90	5
91	40
92	14
93	59
94	75
95	26
96	999
97	87
98	12
99	6
103	12
105	5
106	55
107	48
108	19
109	28
110	56
111	48
112	23
113	8
