Mass Spectrum: Ergosta-8,14-dien-3-ol
Formula: C28H46O
CAS: 55902-81-3
Molecular weight: 398
m/z	intensity
18	20
26	10
27	90
28	60
29	180
31	10
32	10
39	60
40	10
41	450
42	40
43	999
44	40
45	10
51	10
53	60
54	10
55	460
56	30
57	300
58	20
59	10
65	30
66	10
67	170
68	20
69	190
70	30
72	20
73	30
75	10
77	110
78	30
79	170
80	20
81	190
82	20
83	100
84	20
85	70
86	10
91	270
92	40
93	200
94	30
95	140
96	20
97	70
98	10
103	20
104	20
105	250
106	40
107	160
108	30
109	70
110	110
115	80
116	50
117	130
118	40
119	160
120	30
121	60
122	10
123	40
124	10
125	10
127	30
128	110
129	170
130	60
131	200
132	40
133	110
134	20
135	40
136	10
137	20
141	100
142	90
143	200
144	70
145	240
146	50
147	110
148	20
149	30
151	10
152	20
153	40
154	30
155	120
156	50
157	140
158	40
159	270
160	60
161	100
162	20
163	20
165	40
166	20
167	50
168	40
169	100
170	40
171	110
172	40
173	70
174	20
175	20
177	10
178	20
179	30
180	20
181	50
182	30
183	100
184	30
185	100
186	30
187	50
188	20
189	20
193	10
194	10
195	40
196	30
197	90
198	50
199	100
200	40
201	30
202	10
203	20
209	30
210	20
211	100
212	40
213	50
214	10
215	20
216	10
217	60
218	40
219	10
223	50
224	20
225	50
226	20
227	30
228	10
229	30
230	10
231	20
238	80
239	200
240	150
241	30
242	30
243	10
244	30
245	20
246	20
247	10
251	20
252	20
253	120
254	50
255	130
256	140
257	160
258	40
259	10
269	50
270	50
271	300
272	100
273	30
274	10
275	10
281	10
283	10
285	10
286	10
287	10
297	10
299	50
300	20
301	10
311	10
312	10
313	10
323	20
324	10
325	20
326	20
327	10
329	30
339	30
340	20
365	340
366	110
367	30
381	80
382	70
383	799
384	250
385	50
396	70
397	80
398	949
399	320
400	60
