Mass Spectrum: D-Fructose, 1-O-methyl-
Formula: C7H14O6
CAS: 55905-50-5
Molecular weight: 194
m/z	intensity
31	406
32	71
33	67
38	4
39	67
40	27
41	103
42	159
43	478
44	39
45	999
46	43
47	27
53	8
54	8
55	71
56	39
57	167
58	55
59	63
60	270
61	131
62	8
63	31
68	27
69	71
70	8
71	151
72	63
73	565
74	111
75	79
76	8
77	23
83	4
85	95
86	167
87	47
88	4
89	8
91	47
101	4
102	8
103	83
104	71
105	15
117	4
119	8
131	8
145	8
146	8
148	31
149	155
150	19
151	4
158	8
163	19
164	8
