Mass Spectrum: 16,28-Secosolanidane-3,16-diol, (3.beta.,5.alpha.,16.beta.,22.xi.,25.xi.)-
Formula: C27H47NO2
CAS: 55902-91-5
Molecular weight: 417
m/z	intensity
98	999
99	69
140	101
141	28
150	48
151	28
395	11
396	20
397	30
398	28
399	40
400	17
401	4
402	18
403	4
414	4
415	9
416	25
417	12
418	4
