Mass Spectrum: 1,2,5-Thiadiazole, 3,4-dichloro-, 1,1-dioxide
Formula: C2Cl2N2O2S
CAS: 55904-85-3
Molecular weight: 186
m/z	intensity
26	40
27	17
29	8
30	9
35	152
36	261
37	51
38	90
39	11
41	17
42	8
43	11
44	37
46	24
47	59
48	363
49	27
50	18
52	148
54	6
56	19
58	14
61	713
62	12
63	442
64	830
65	85
66	44
67	6
69	7
73	23
75	8
79	9
83	21
84	12
85	7
87	205
88	7
89	68
90	444
91	34
92	24
93	15
94	9
95	5
96	6
99	51
101	20
105	14
107	13
109	10
125	999
127	386
128	10
129	17
151	41
153	14
155	2
186	4
188	2
190	0
