Mass Spectrum: D-Arabino-Hexopyranoside, methyl 2,6-dideoxy-4-O-(6-deoxy-3-O-methyl-.beta.-D-allopyranosyl)-3-O-methyl-
Formula: C15H28O8
CAS: 55902-83-5
Molecular weight: 336
m/z	intensity
39	25
40	25
41	175
42	25
43	219
44	23
45	245
53	27
55	97
56	23
57	115
58	99
59	384
60	41
61	55
67	48
68	23
69	97
70	23
71	162
72	23
73	145
74	999
75	189
76	6
77	41
78	37
81	6
83	53
84	20
85	368
86	27
87	231
88	23
95	148
96	25
97	44
98	6
99	113
100	32
101	381
102	39
103	62
111	20
113	57
114	23
115	141
116	13
117	39
126	113
127	231
128	141
129	97
141	185
142	18
143	41
145	69
158	122
159	201
160	39
161	57
173	701
174	62
175	6
186	18
197	23
198	11
205	44
213	18
214	162
215	23
219	106
220	13
229	69
230	16
232	23
234	23
260	14
261	7
272	32
273	15
274	6
287	5
304	16
305	43
306	9
317	6
318	44
319	7
336	3
