Mass Spectrum: Perfluoro-2,2,8-trimethyl-3,6,9-trioxadodecane
Formula: C12F26O3
CAS: 55928-70-6
Molecular weight: 686
m/z	intensity
69	999
97	42
100	70
119	322
131	127
137	30
140	25
169	873
219	113
285	77
335	359
501	14
598	4
