Mass Spectrum: Cholest-5-ene-16,22-dione, 3,26-dihydroxy-
Formula: C27H42O4
CAS: 55925-29-6
Molecular weight: 430
m/z	intensity
31	110
32	40
39	60
40	20
41	480
42	60
43	370
44	100
45	100
53	100
54	20
55	499
56	60
57	160
58	20
59	20
65	40
66	20
67	230
68	40
69	799
70	50
71	60
73	110
74	10
77	150
78	50
79	240
80	50
81	250
82	80
83	70
84	250
85	100
86	10
91	300
92	60
93	220
94	90
95	200
96	50
97	380
98	40
99	40
103	20
104	20
105	290
106	60
107	200
108	70
109	190
110	40
111	60
112	20
113	40
114	20
115	999
116	100
117	110
118	40
119	180
120	120
121	160
122	50
123	70
124	210
125	140
126	50
127	20
128	50
129	70
130	40
131	140
132	50
133	160
134	40
135	70
136	20
137	40
138	20
139	430
140	60
141	30
142	30
143	120
144	50
145	160
146	40
147	100
148	30
149	50
150	10
151	60
152	50
153	10
155	30
156	10
157	140
158	60
159	150
160	40
161	60
162	40
163	50
164	70
165	100
166	120
167	20
169	40
171	100
172	40
173	90
174	20
175	50
177	30
179	10
180	310
181	150
182	20
183	20
184	10
185	50
186	20
187	40
197	70
198	70
199	110
200	20
201	20
203	10
211	50
212	40
213	250
214	150
215	160
216	50
217	20
229	50
230	30
231	110
232	50
233	10
265	20
269	20
273	30
283	50
284	10
298	70
299	10
301	260
302	50
303	10
315	170
316	480
317	110
318	10
343	110
344	30
361	20
371	10
379	50
380	10
394	340
395	100
396	20
397	80
398	20
412	280
413	100
414	10
