Mass Spectrum: Cholest-5-ene-3,16,22,26-tetrol
Formula: C27H46O4
CAS: 55925-28-5
Molecular weight: 434
m/z	intensity
41	356
42	77
43	618
44	75
45	42
47	5
49	4
51	4
53	73
55	542
57	274
58	13
59	11
60	3
65	25
67	175
69	168
71	144
72	12
73	14
75	1
77	62
78	8
79	134
81	402
82	46
83	64
84	17
85	49
86	7
91	168
92	25
93	190
94	34
95	188
96	24
97	58
98	238
99	999
100	54
101	4
103	15
105	217
106	44
107	166
108	41
109	70
110	14
111	19
112	2
113	20
115	29
116	8
117	181
118	12
119	119
120	56
121	91
122	60
123	47
124	19
125	16
126	44
127	16
128	14
129	29
130	11
131	83
132	30
133	107
134	28
135	43
136	15
137	13
138	6
139	8
141	14
142	13
143	79
144	81
145	134
146	29
147	80
148	15
149	21
150	4
151	17
153	9
155	20
156	7
157	89
158	85
159	85
160	25
161	50
162	28
163	20
164	11
165	8
167	3
169	17
170	11
171	43
172	30
173	45
174	28
175	49
176	32
177	20
178	8
181	4
183	22
184	6
185	40
186	14
187	28
188	17
189	34
190	8
195	8
197	33
198	10
199	39
200	10
201	15
202	3
203	7
209	2
211	18
212	16
213	46
214	47
215	34
216	10
217	15
218	6
223	4
225	20
226	8
227	42
228	14
229	18
230	19
231	12
232	19
233	9
237	3
239	14
240	7
241	24
242	10
243	13
244	2
245	16
246	6
253	26
254	9
255	7
256	4
257	12
258	15
267	104
268	23
269	7
271	78
272	21
273	27
274	6
282	39
283	14
285	59
286	13
300	74
301	17
316	12
318	59
319	15
329	13
383	1
398	8
399	3
