Mass Spectrum: Cyclohexane, (methyl-aci-nitro)-
Formula: C7H13NO2
CAS: 55937-97-8
Molecular weight: 143
m/z	intensity
15	27
18	5
26	18
27	167
28	58
29	124
30	19
31	59
32	37
33	2
34	1
37	5
38	15
39	219
40	37
41	509
42	246
43	122
44	29
45	40
46	5
47	1
49	1
50	15
51	26
52	13
53	65
54	95
55	999
56	88
57	114
58	25
59	16
60	1
61	1
62	2
63	4
64	1
65	13
66	7
67	99
68	15
69	135
70	94
71	38
72	15
73	2
74	3
75	4
77	14
78	2
79	34
80	24
81	157
82	87
83	549
84	44
85	7
87	5
88	23
89	1
94	1
95	1
96	19
97	17
98	176
99	21
100	5
101	255
102	18
103	2
111	8
112	4
113	253
114	22
115	10
130	2
135	1
143	12
144	27
145	2
147	8
149	1
