Mass Spectrum: 2-Oxazolidinone, 5-methyl-3-(2-propenyl)-
Formula: C7H11NO2
CAS: 55956-20-2
Molecular weight: 141
m/z	intensity
14	5
15	42
16	1
17	2
18	8
25	1
26	21
27	77
28	184
29	47
30	30
31	4
32	3
34	1
37	7
38	19
39	225
40	41
41	999
42	341
43	76
44	11
45	32
46	1
47	2
50	2
51	7
52	9
53	7
54	164
55	75
56	323
57	30
58	8
59	1
62	1
63	2
64	1
65	7
66	8
67	16
68	594
69	149
70	141
71	9
72	2
73	14
77	3
78	3
79	4
80	19
81	8
82	349
83	23
84	3
85	2
86	4
87	2
92	1
93	1
95	3
96	83
97	26
98	12
99	3
100	85
101	16
102	3
105	1
106	3
110	5
112	22
113	3
114	13
116	1
117	1
124	1
126	102
127	8
128	1
129	1
139	1
140	13
141	360
142	39
143	4
