Mass Spectrum: 3-Octen-5-yne, 2,7-dimethyl-, (E)-
Formula: C10H16
CAS: 55956-33-7
Molecular weight: 136
m/z	intensity
13	8
14	36
15	316
16	7
18	3
26	46
27	629
28	81
29	425
30	9
37	2
38	67
39	727
40	92
41	680
42	41
43	377
44	15
45	6
49	9
50	126
51	337
52	133
53	299
54	30
55	294
56	46
57	18
58	16
59	3
60	2
61	15
62	40
63	154
64	41
65	237
66	55
67	146
68	61
69	74
70	8
71	3
72	3
73	7
74	37
75	46
76	26
77	743
78	171
79	881
80	476
81	133
82	13
83	3
84	2
85	5
86	9
87	11
89	38
90	35
91	657
92	115
93	999
94	113
95	23
96	3
97	2
98	4
99	2
101	7
102	15
103	75
104	32
105	439
106	151
107	184
108	26
109	11
114	2
115	15
116	7
117	15
118	6
119	81
120	23
121	613
122	62
123	3
134	4
135	11
136	706
137	82
138	5
