Mass Spectrum: Undecanoic acid, 2,8-dimethyl-, methyl ester
Formula: C14H28O2
CAS: 55955-74-3
Molecular weight: 228
m/z	intensity
15	43
16	21
17	72
18	79
27	113
28	53
29	102
30	15
39	109
40	26
41	306
42	64
43	339
44	21
45	38
53	32
55	252
56	82
57	230
58	35
59	100
67	46
68	21
69	230
71	145
73	115
74	37
81	43
82	32
83	126
84	31
85	52
87	65
88	999
89	67
91	21
95	34
97	115
98	38
99	27
101	558
102	47
109	35
111	38
112	34
113	23
115	38
116	11
125	21
126	8
129	45
130	12
135	13
143	60
144	4
145	2
153	34
154	6
155	16
157	157
158	24
169	2
171	75
172	12
185	27
186	5
197	50
198	15
199	41
200	2
228	84
229	12
