Mass Spectrum: Cyclohexanecarboxylic acid, 3-methylene-2-oxo-, methyl ester
Formula: C9H12O3
CAS: 55956-42-8
Molecular weight: 168
m/z	intensity
13	34
14	59
15	275
16	9
17	11
18	9
19	2
24	4
25	27
26	265
27	483
28	162
29	346
30	39
31	434
32	285
33	6
36	8
37	78
38	141
39	621
40	273
41	152
42	42
43	21
44	6
45	6
46	2
48	4
49	26
50	269
51	283
52	430
53	476
54	412
55	172
56	12
57	3
59	12
60	9
61	33
62	38
63	59
64	14
65	83
66	60
67	74
68	183
69	39
70	3
72	2
73	10
74	28
75	18
76	8
77	193
78	94
79	999
80	231
81	84
82	30
83	18
84	3
85	4
86	4
87	5
90	5
91	9
92	4
93	6
94	4
95	7
96	2
97	2
98	3
100	4
105	5
106	6
107	70
108	625
109	62
110	7
111	2
112	2
121	4
124	10
125	3
134	3
135	27
136	861
137	93
138	10
140	5
168	55
169	6
