Mass Spectrum: Dodecanoic acid, 2,10-dimethyl-, methyl ester
Formula: C15H30O2
CAS: 55955-79-8
Molecular weight: 242
m/z	intensity
15	20
18	39
27	29
28	56
29	98
30	8
39	39
41	171
42	32
43	195
45	16
55	200
56	63
57	197
58	13
59	58
67	31
69	13
70	32
71	62
72	9
73	32
74	48
75	21
79	21
81	24
83	87
85	24
86	17
87	82
88	999
89	64
93	9
94	6
95	29
96	18
97	78
98	17
99	23
101	378
102	43
106	8
107	18
111	37
112	27
113	21
114	6
115	29
116	1
125	16
126	5
127	9
128	4
129	17
130	8
135	13
139	10
141	2
143	163
144	20
153	21
157	128
158	10
163	36
169	10
171	32
172	2
177	1
181	40
182	4
185	102
186	21
187	1
199	59
200	4
211	52
212	2
213	62
214	4
242	221
243	58
