Mass Spectrum: Decane, 3-methoxy-
Formula: C11H24O
CAS: 55955-64-1
Molecular weight: 172
m/z	intensity
31	32
41	160
42	31
43	85
44	12
45	150
46	3
55	120
56	13
57	29
58	7
59	21
69	350
70	18
71	28
72	12
73	999
74	45
75	3
83	15
84	1
111	81
112	7
140	11
141	1
143	310
144	30
145	2
172	1
