Mass Spectrum: 1H-1,2-Diazepine, 3,7-bis(1,1-dimethylethyl)-5-methyl-
Formula: C14H24N2
CAS: 55955-71-0
Molecular weight: 220
m/z	intensity
39	167
40	196
41	559
42	14
53	106
55	93
57	999
67	12
80	107
81	392
82	107
91	39
94	98
95	129
107	142
122	456
123	49
149	200
163	110
178	721
179	104
205	473
206	71
220	154
