Mass Spectrum: Alanine, N-acetyl-2-mercapto-, (.+/-.)-
Formula: C5H9NO3S
CAS: 55956-23-5
Molecular weight: 163
m/z	intensity
33	499
34	999
36	130
41	519
42	999
43	969
44	619
45	270
58	280
59	749
87	260
88	360
129	160
130	220
163	35
