Mass Spectrum: 3-Hexanethiol, 3-ethyl-
Formula: C8H18S
CAS: 55956-00-8
Molecular weight: 146
m/z	intensity
37	2
38	12
39	84
41	309
42	14
43	64
44	2
45	7
46	2
47	17
48	1
49	2
50	4
51	9
52	3
53	26
54	6
55	224
56	142
57	999
58	44
59	24
60	2
61	8
62	1
63	2
65	5
66	1
67	10
68	2
69	60
70	17
71	18
72	1
73	1
74	32
75	245
76	12
77	17
78	1
79	7
80	3
81	8
82	3
83	13
84	3
85	4
86	0
87	0
88	23
89	52
90	7
91	5
95	2
96	1
97	148
98	13
99	2
102	1
103	4
111	1
112	98
113	86
114	7
115	0
117	0
125	0
129	1
131	2
132	0
146	38
147	3
148	1
