Mass Spectrum: Benzene, 2-chloro-1-(dibromomethyl)-4-nitro-
Formula: C7H4Br2ClNO2
CAS: 55956-19-9
Molecular weight: 327
m/z	intensity
12	4
13	5
14	27
15	153
16	3
25	3
26	17
27	52
28	341
29	434
30	396
31	10
35	51
36	462
37	45
38	189
39	89
40	17
41	75
42	59
43	141
44	155
45	294
46	23
47	30
48	17
49	29
50	157
51	77
52	71
53	49
54	21
55	56
56	24
57	57
58	57
59	231
60	41
61	93
62	118
63	117
64	29
65	25
66	7
67	10
68	34
69	55
70	19
71	83
72	43
73	194
74	151
75	220
76	44
77	58
78	42
79	127
80	203
81	143
82	206
83	34
84	48
85	99
86	74
87	291
88	113
89	97
90	16
91	75
92	10
93	203
94	999
95	162
96	979
97	87
98	34
99	71
101	88
109	43
110	41
111	116
113	65
114	25
115	34
116	32
117	37
122	14
123	265
124	17
125	124
126	58
127	77
138	42
139	63
140	82
141	41
142	53
143	24
144	14
145	11
146	56
147	12
148	37
149	22
150	15
151	13
152	9
153	15
154	25
155	19
156	21
157	27
158	50
159	28
160	24
161	15
162	9
163	13
164	8
165	45
166	17
167	13
168	7
169	14
170	237
171	47
172	94
173	24
174	34
175	18
176	51
177	13
178	4
179	3
180	11
181	3
182	9
183	19
184	224
185	160
186	134
187	58
188	15
189	5
190	42
191	8
192	51
193	12
194	16
195	6
196	33
197	27
198	38
199	31
200	18
201	17
202	22
203	15
204	275
205	48
206	173
207	28
208	31
209	6
210	15
211	23
212	9
213	6
214	3
215	2
216	3
217	3
218	12
219	5
220	15
221	3
222	3
223	2
225	2
226	3
227	3
228	2
229	1
230	3
232	1
233	3
234	3
235	3
236	2
237	3
239	14
241	12
247	3
248	156
249	29
250	195
251	38
252	55
253	10
254	3
256	14
257	2
258	3
261	10
262	25
263	70
264	52
265	137
266	34
267	67
268	6
327	26
329	35
331	7
