Mass Spectrum: Spiro[bicyclo[2.2.2]octane-2,2'-[1,3]dioxolane], 3-bromo-
Formula: C10H15BrO2
CAS: 55956-34-8
Molecular weight: 246
m/z	intensity
14	11
15	64
16	9
17	55
18	195
19	5
26	23
27	205
28	76
29	78
30	9
31	12
32	2
36	1
37	2
38	10
39	149
40	37
41	136
42	24
43	31
44	7
45	32
46	6
47	2
50	8
51	30
52	28
53	106
54	28
55	296
56	13
57	5
58	3
59	1
60	2
61	2
62	5
63	16
64	5
65	51
66	47
67	129
68	48
69	11
70	1
71	1
73	34
74	3
75	3
76	2
77	56
78	26
79	75
80	18
81	48
82	9
83	4
86	11
87	4
88	2
89	2
90	1
91	35
92	8
93	26
94	10
95	46
96	5
97	4
98	7
99	999
100	59
101	7
102	2
103	4
104	2
105	15
106	10
107	12
108	15
109	22
110	4
111	2
112	93
113	20
114	2
117	3
118	2
119	8
120	16
121	8
122	16
123	6
124	2
125	34
126	10
127	2
131	1
132	1
133	14
134	4
135	13
136	1
137	7
138	6
139	65
140	54
141	5
145	1
147	3
148	3
151	1
153	3
154	2
159	1
161	2
163	1
164	15
165	3
166	19
167	163
168	18
169	1
173	1
174	1
175	2
177	114
178	7
179	111
180	7
181	8
190	1
202	2
203	5
204	1
205	8
206	1
207	3
218	2
219	1
220	1
245	3
246	109
247	15
248	106
249	12
250	1
