Mass Spectrum: 2H-1,3-Benzoxazine, 6-bromo-3,4-dihydro-3-(phenylmethyl)-
Formula: C15H14BrNO
CAS: 55955-91-4
Molecular weight: 303
m/z	intensity
15	14
18	23
27	26
28	176
29	25
30	38
32	46
38	18
39	76
40	15
41	91
42	67
43	55
44	19
50	36
51	69
52	21
53	12
55	46
56	58
57	24
62	16
63	43
64	13
65	124
68	16
69	10
70	16
74	12
75	10
76	11
77	88
78	59
79	61
82	27
83	23
89	43
90	23
91	999
92	151
93	12
104	13
106	134
107	93
108	13
117	19
118	108
119	167
120	29
121	10
156	11
157	13
172	14
173	14
184	14
186	23
194	20
195	26
