Mass Spectrum: Decanoic acid, 2,4,6-trimethyl-, methyl ester
Formula: C14H28O2
CAS: 55955-72-1
Molecular weight: 228
m/z	intensity
15	21
27	19
28	16
29	76
31	1
39	16
40	1
41	138
42	32
43	120
44	4
45	8
53	11
54	1
55	126
56	42
57	191
58	11
59	61
60	1
61	1
67	9
68	4
69	123
70	19
71	91
72	3
73	35
74	9
81	4
82	3
83	61
84	1
85	58
86	4
87	34
88	999
89	56
90	4
95	6
97	45
98	4
99	21
100	1
101	536
102	47
103	6
107	4
109	3
111	21
113	6
115	21
125	6
126	11
127	4
129	40
130	1
139	4
141	26
142	1
143	9
153	4
154	3
157	91
158	9
163	3
167	14
168	3
169	9
171	42
172	4
179	3
181	9
183	1
185	37
186	6
197	29
198	3
199	3
213	4
214	6
228	34
229	4
