Mass Spectrum: Silacyclopentane, 1,1,2,5-tetramethyl-
Formula: C8H18Si
CAS: 55956-01-9
Molecular weight: 142
m/z	intensity
27	380
43	150
58	120
59	220
72	150
73	200
85	999
86	350
100	989
127	150
142	250
