Mass Spectrum: Ethanol, 2-[(methyl-2-thienylmethylene)amino]-
Formula: C8H11NOS
CAS: 55956-24-6
Molecular weight: 169
m/z	intensity
15	8
18	11
19	6
26	3
27	25
28	110
29	10
30	10
31	7
32	26
36	3
37	3
38	10
39	66
40	6
41	11
42	50
43	30
44	17
45	106
47	3
50	11
51	22
52	11
53	26
54	14
55	15
56	6
57	14
58	20
59	8
62	3
63	11
64	6
65	44
66	23
67	7
68	3
69	34
70	12
71	14
74	3
75	3
76	3
77	18
78	7
79	3
80	3
81	8
82	11
83	20
84	18
85	11
86	17
93	3
94	5
95	9
96	16
97	999
98	67
99	48
100	3
108	6
109	83
110	237
111	110
112	17
113	6
122	8
123	15
124	18
125	9
126	6
136	12
137	6
138	938
139	116
140	48
141	6
150	5
151	12
152	3
153	2
154	126
155	12
156	8
168	6
169	140
170	14
171	8
