Mass Spectrum: Phenol, 2-butoxy-6-[(dimethylamino)methyl]-
Formula: C13H21NO2
CAS: 55956-28-0
Molecular weight: 223
m/z	intensity
13	2
14	9
15	48
16	1
17	3
18	113
22	1
26	9
27	83
28	181
29	168
30	23
31	4
32	4
36	3
37	3
38	16
39	84
40	30
41	145
42	98
43	86
44	579
45	354
46	12
49	1
50	13
51	31
52	21
53	41
54	8
55	45
56	14
57	76
58	11
59	2
60	2
61	3
62	5
63	30
64	42
65	54
66	24
67	7
68	1
69	1
71	1
72	1
73	3
74	3
75	6
76	5
77	40
78	13
79	11
80	5
81	37
82	13
83	1
89	16
90	4
91	19
92	26
93	19
94	40
95	19
96	1
99	2
100	1
101	1
102	2
103	5
104	4
105	11
106	11
107	15
108	6
109	25
110	999
111	71
112	6
113	1
115	6
116	1
117	3
118	2
119	5
120	6
121	54
122	208
123	148
124	83
125	13
126	1
127	4
128	64
129	6
130	21
131	11
132	3
133	11
134	9
135	84
136	30
137	10
138	12
139	3
141	6
142	1
143	2
144	1
145	11
146	3
147	7
148	3
149	18
150	9
151	3
152	8
153	2
157	1
158	1
159	5
160	8
161	10
162	3
163	6
164	12
165	30
166	219
167	30
168	3
169	3
173	1
174	2
175	1
176	3
177	10
178	39
179	85
180	34
181	8
182	4
187	1
188	1
190	1
191	1
192	3
193	1
194	3
197	3
198	1
199	1
204	1
208	2
209	2
213	1
214	2
215	2
216	3
217	1
218	7
220	4
221	1
222	21
223	9
