Mass Spectrum: 3-Buten-2-one, 3-methyl-1-phenyl-
Formula: C11H12O
CAS: 55956-30-4
Molecular weight: 160
m/z	intensity
26	11
27	38
28	10
29	8
37	10
38	34
39	302
40	39
41	918
42	35
43	54
50	29
51	101
52	26
53	16
55	9
57	4
61	12
62	39
63	101
64	32
65	202
66	16
67	4
68	4
69	999
70	50
71	6
73	4
74	13
75	10
76	7
77	38
78	9
79	6
83	4
84	5
85	4
86	6
87	9
88	4
89	58
90	36
91	449
92	44
93	4
103	6
104	3
105	48
106	5
111	9
115	12
116	5
117	16
118	7
126	8
127	4
128	5
129	3
131	6
132	16
133	4
145	10
159	5
160	221
161	27
