Mass Spectrum: 2-Cyclohexen-1-one, 3-(hydroxymethyl)-6-(1-methylethyl)-
Formula: C10H16O2
CAS: 55955-54-9
Molecular weight: 168
m/z	intensity
39	70
40	110
41	999
42	430
43	240
50	40
51	110
52	60
53	220
54	50
55	430
56	40
57	80
58	40
59	20
63	40
65	100
66	60
67	230
68	130
69	330
70	380
71	80
77	200
78	50
79	270
80	120
81	120
82	110
83	160
84	70
85	20
91	130
92	20
93	110
94	30
95	519
96	60
97	619
98	759
105	50
107	140
108	130
109	90
110	50
111	70
115	20
117	30
121	20
123	30
124	80
125	70
126	909
135	120
137	30
139	20
140	90
150	70
153	160
168	180
