Mass Spectrum: 5H-Cyclohepta-1,4-dioxin, 2,3,4a,6,7,9a-hexahydro-, cis-
Formula: C9H14O2
CAS: 55956-39-3
Molecular weight: 154
m/z	intensity
14	39
15	271
16	11
17	20
18	67
19	31
26	112
27	999
28	331
29	751
30	87
31	128
37	18
38	72
39	949
40	190
41	994
42	277
43	399
44	130
45	421
46	12
47	4
49	4
50	51
51	238
52	121
53	482
54	380
55	619
56	87
57	155
58	101
59	26
60	6
61	11
62	32
63	83
64	24
65	193
66	290
67	584
68	257
69	347
70	509
71	74
72	18
73	903
74	38
75	17
76	8
77	297
78	92
79	642
80	126
81	450
82	205
83	306
84	56
85	11
86	241
87	44
88	5
89	12
90	10
91	172
92	217
93	144
94	93
95	172
96	80
97	98
98	110
99	425
100	303
101	20
102	4
105	5
107	19
108	21
109	94
110	197
111	116
112	197
113	49
114	5
123	32
124	25
125	316
126	220
127	21
139	82
140	8
153	80
154	385
155	40
156	4
