Mass Spectrum: 2H-Pyran-2-butanoic acid, 6-heptadecyltetrahydro-, methyl ester
Formula: C27H52O3
CAS: 55955-48-1
Molecular weight: 424
m/z	intensity
26	23
27	137
28	251
29	582
30	62
31	629
32	275
33	4
38	4
39	126
40	27
41	606
42	177
43	964
44	417
45	47
46	4
51	23
52	11
53	78
54	51
55	999
56	259
57	748
58	70
59	137
63	7
64	4
65	27
66	35
67	429
68	401
69	582
70	212
71	452
72	39
73	31
74	602
75	66
76	4
77	55
78	19
79	141
80	94
81	440
82	287
83	570
84	212
85	244
86	19
87	259
88	27
89	4
90	4
91	98
92	31
93	177
94	90
95	417
96	315
97	496
98	141
99	464
100	39
101	66
102	27
103	7
104	23
105	70
106	27
107	255
108	86
109	275
110	102
111	240
112	480
113	153
114	47
115	47
116	15
117	59
118	11
119	39
120	31
121	82
122	31
123	141
124	102
125	468
126	98
127	70
128	110
129	102
130	35
131	181
132	31
133	59
134	19
135	287
136	94
137	94
138	31
139	55
140	62
141	55
142	23
143	59
144	944
145	114
146	18
147	11
148	11
149	66
150	59
151	59
152	70
153	523
154	126
155	35
156	15
157	523
158	59
159	15
160	7
161	19
162	4
163	31
164	19
165	31
166	11
167	145
168	70
169	23
171	27
173	7
175	7
177	11
178	7
179	23
180	15
181	51
182	31
183	15
184	7
185	708
186	157
187	27
188	4
189	4
191	11
193	11
194	11
195	19
196	11
197	4
198	4
199	27
200	35
205	4
207	15
208	15
209	15
210	4
211	7
213	23
214	4
221	4
222	7
223	7
224	4
225	4
227	4
235	7
236	19
237	11
238	7
239	7
241	7
242	7
249	7
250	7
252	7
253	7
260	4
264	19
265	7
266	23
267	27
270	7
278	39
279	7
280	4
282	7
284	7
288	4
290	4
291	4
292	4
293	4
294	4
295	4
305	51
306	11
307	4
318	7
319	4
320	7
321	4
322	11
323	196
324	47
329	19
330	4
331	4
332	23
333	15
334	4
336	19
346	19
348	4
349	4
350	4
351	4
352	7
354	31
355	4
356	59
357	23
358	7
368	4
370	27
372	102
373	31
374	102
375	47
376	27
377	7
382	7
391	4
392	55
393	39
394	7
406	23
410	23
424	141
425	43
