Mass Spectrum: Cyclohexanamine, N-[2-(2-phenoxyethoxy)ethyl]-
Formula: C16H25NO2
CAS: 55955-93-6
Molecular weight: 263
m/z	intensity
26	13
27	103
28	64
29	73
30	119
31	27
32	11
36	10
37	10
38	30
39	146
40	57
41	173
42	154
43	161
44	385
45	391
46	53
47	11
49	4
50	38
51	107
52	20
53	42
54	56
55	244
56	304
57	48
58	37
59	47
60	12
61	7
62	12
63	33
64	13
65	116
66	108
67	68
68	55
69	53
70	57
71	26
72	41
73	22
74	14
75	15
76	13
77	320
78	50
79	70
80	22
81	61
82	114
83	114
84	45
85	18
86	158
87	23
88	13
89	27
90	7
91	134
92	53
93	43
94	999
95	141
96	41
97	13
98	71
99	31
100	56
101	7
102	4
103	13
104	7
105	13
106	16
107	107
108	25
109	10
110	43
111	21
112	784
113	132
114	15
115	10
116	4
117	5
118	4
119	21
120	48
121	67
122	12
123	4
124	16
125	13
126	420
127	44
128	42
129	7
130	2
131	6
132	4
133	24
134	9
135	17
136	16
137	4
138	731
139	83
140	31
141	13
142	7
143	16
144	3
145	2
146	6
147	9
148	6
149	32
150	10
151	10
152	24
153	17
154	13
155	17
156	14
157	6
158	6
159	4
160	2
161	5
162	9
163	16
164	40
165	11
166	4
167	6
168	14
169	74
170	174
171	30
172	4
173	2
174	4
175	5
176	14
177	10
178	7
179	4
180	8
181	106
182	59
183	15
184	12
185	2
186	3
189	4
190	2
191	8
196	12
197	4
198	5
199	4
200	5
201	3
202	5
207	10
208	2
209	12
210	3
211	2
214	4
220	104
221	16
222	7
224	14
262	7
263	9
