Mass Spectrum: Oxazolidine, 2,2,5-trimethyl-3-propyl-
Formula: C9H19NO
CAS: 55955-98-1
Molecular weight: 157
m/z	intensity
13	4
14	21
16	2
17	10
18	47
19	1
20	0
24	1
25	6
26	27
27	56
28	68
29	30
30	57
31	10
32	13
36	4
37	13
38	16
39	42
40	8
41	68
42	94
43	999
44	33
45	8
52	1
53	4
54	5
55	13
56	27
57	18
58	427
59	23
60	5
67	1
68	3
69	3
70	97
71	19
72	74
73	5
74	0
77	0
79	1
81	1
82	1
83	1
84	8
85	5
86	5
87	0
88	4
95	1
96	1
97	1
98	9
99	2
100	120
101	8
102	3
109	0
112	2
113	2
114	2
115	1
116	1
117	2
126	1
128	12
129	2
135	1
141	0
142	203
143	18
144	1
149	0
156	0
157	3
