Mass Spectrum: 5,8-Methano-5H-cyclohepta-1,4-dioxin, 2,3,6,7,8,9-hexahydro-
Formula: C10H14O2
CAS: 55956-36-0
Molecular weight: 166
m/z	intensity
14	21
15	92
16	4
17	13
18	44
19	5
25	2
26	85
27	489
28	183
29	119
30	7
31	11
37	8
38	35
39	450
40	99
41	371
42	71
43	94
44	5
45	28
49	2
50	32
51	142
52	94
53	282
54	275
55	342
56	26
57	9
61	6
62	16
63	48
64	16
65	216
66	999
67	546
68	336
69	43
70	3
71	4
73	6
74	8
75	8
76	6
77	122
78	43
79	88
80	34
81	205
82	127
83	24
84	2
86	2
87	4
89	6
90	3
91	53
92	53
93	74
94	37
95	72
96	63
97	9
99	38
100	11
101	2
102	2
103	7
104	3
105	6
106	3
107	12
108	10
109	43
110	650
111	54
112	38
113	7
114	5
117	4
118	3
119	2
121	10
122	6
123	5
124	9
125	127
126	10
135	3
136	22
137	613
138	129
139	12
148	4
151	11
165	10
166	522
167	58
168	5
