Mass Spectrum: L-Galactose, 6-deoxy-, cyclic 1,2-ethanediyl mercaptal, tetraacetate
Formula: C16H24O8S2
CAS: 55955-81-2
Molecular weight: 408
m/z	intensity
44	214
45	570
46	45
47	57
48	4
49	2
50	6
51	13
52	4
53	32
54	13
55	52
56	9
57	63
58	68
59	111
60	59
61	333
62	16
63	16
64	16
65	16
66	4
67	4
68	4
69	36
70	11
71	52
72	9
73	36
74	13
75	9
76	18
77	50
78	13
79	18
82	6
83	6
84	18
85	6
86	20
87	13
88	9
89	16
90	6
91	16
92	6
97	13
99	59
100	18
101	9
102	13
103	32
104	4
105	999
106	52
107	91
108	4
111	13
113	4
115	18
117	18
118	16
119	16
120	6
127	11
129	16
130	4
131	27
132	4
134	18
135	6
141	6
145	13
147	109
148	6
149	16
158	27
159	34
160	27
161	9
185	4
186	29
187	22
188	4
189	36
200	32
201	6
202	4
203	4
204	11
213	1
217	0
218	0
219	0
228	0
229	2
230	0
231	0
245	3
246	2
247	1
288	15
289	3
290	2
348	0
349	0
