Mass Spectrum: D-Glucose, O-2,3,4,6-tetra-O-methyl-.alpha.-D-glucopyranosyl-(1.fwdarw.6)-O-2,3,4-tri-O-methyl-.alpha.-D-glucopyranosyl-(1.fwdarw.4)-2,3,5,6-tetra-O-methyl-
Formula: C29H54O16
CAS: 55956-06-4
Molecular weight: 658
m/z	intensity
45	230
71	100
75	320
88	999
89	120
99	60
101	380
111	170
115	60
127	100
143	30
145	50
155	110
159	20
175	10
187	340
201	20
219	150
279	60
303	2
305	51
335	3
359	11
391	40
423	16
483	48
