Mass Spectrum: Dodecanoic acid, 4-methyl-, methyl ester
Formula: C14H28O2
CAS: 55955-73-2
Molecular weight: 228
m/z	intensity
26	3
27	53
28	23
29	123
30	2
31	5
39	38
40	9
41	223
42	47
43	286
44	9
45	11
51	2
53	18
54	13
55	262
56	84
57	325
58	14
59	69
60	3
61	2
65	2
67	20
68	12
69	119
70	27
71	166
72	11
73	83
74	690
75	79
76	5
79	4
81	23
82	7
83	92
84	13
85	144
86	10
87	999
88	134
89	10
93	4
95	20
96	6
97	39
98	18
99	60
100	4
101	11
107	2
109	11
110	3
111	16
112	10
113	25
114	4
115	94
116	7
121	2
123	5
125	4
129	8
135	1
137	1
139	5
143	12
152	5
154	25
155	173
156	20
157	9
163	3
171	105
172	12
178	2
179	5
181	3
186	2
197	51
198	7
199	19
200	2
213	1
228	18
229	5
