Mass Spectrum: Carbamic acid, 2-propenyl-, 2-hydroxyethyl ester
Formula: C6H11NO3
CAS: 55956-17-7
Molecular weight: 145
m/z	intensity
14	5
15	32
16	1
17	4
18	19
19	46
25	1
26	22
27	128
28	244
29	107
30	216
31	175
32	20
33	29
37	4
38	13
39	182
40	24
41	999
42	87
43	90
44	71
45	418
46	16
47	1
51	4
52	10
53	5
54	68
55	68
56	514
57	230
58	68
59	12
60	2
61	13
62	11
63	100
64	3
65	1
66	2
67	1
68	7
69	3
70	22
71	7
72	2
73	2
74	36
75	5
81	0
82	19
83	187
84	418
85	24
86	6
87	16
88	8
89	4
94	6
97	1
98	1
99	4
100	414
101	203
102	159
103	19
104	2
105	0
112	1
113	0
114	21
115	92
116	6
117	1
118	13
119	1
120	2
126	1
127	9
128	6
133	1
135	7
138	1
144	2
145	50
146	7
147	2
