Mass Spectrum: (E)-1-(6,10-Dimethylundeca-5,9-dien-2-yl)-4-methylbenzene
Formula: C20H30
CAS: 55968-43-9
Molecular weight: 270
m/z	intensity
37	5
38	7
39	86
41	526
42	30
43	57
44	13
45	9
46	5
49	5
50	7
51	23
52	13
53	78
54	15
55	98
56	13
57	26
58	7
59	5
61	5
62	5
63	13
64	7
65	57
66	15
67	155
68	25
69	403
70	32
71	21
72	5
73	5
74	5
75	7
76	7
77	103
78	30
79	84
80	19
81	100
82	30
83	32
84	7
85	5
86	5
87	5
88	5
89	15
91	257
92	32
93	63
94	15
95	115
96	21
97	7
98	5
101	7
102	15
103	59
104	38
105	351
106	36
107	28
108	15
109	190
110	25
111	7
113	5
114	5
116	28
117	180
118	48
119	999
120	128
121	21
122	13
123	175
124	25
125	9
126	5
128	26
129	28
130	26
131	105
132	748
133	132
134	15
135	13
136	7
137	7
138	7
139	5
141	13
142	13
143	32
145	476
146	75
147	9
148	5
149	5
150	7
151	7
152	7
153	7
154	7
155	7
156	9
157	67
158	21
159	98
160	25
161	7
163	7
166	5
167	5
168	5
169	7
170	5
171	19
172	9
173	13
174	7
175	5
178	5
179	5
181	5
183	7
184	5
185	40
186	19
187	7
188	7
189	5
190	5
197	5
199	19
200	7
201	13
202	7
211	5
212	5
213	7
214	7
215	5
225	5
226	9
227	78
228	23
229	5
241	9
255	7
256	9
268	5
270	25
272	5
