Mass Spectrum: 1,4-Undecadiene, (Z)-
Formula: C11H20
CAS: 55976-14-2
Molecular weight: 152
m/z	intensity
15	51
17	2
18	5
26	30
27	556
28	55
29	361
30	8
37	5
38	19
39	439
40	68
41	990
42	58
43	169
44	6
50	21
51	110
52	62
53	270
54	156
55	660
56	57
57	46
58	3
61	3
62	12
63	41
64	11
65	113
66	64
67	999
68	141
69	992
70	64
71	5
74	6
75	8
76	4
77	186
78	50
79	268
80	67
81	858
82	189
83	29
84	3
85	1
89	5
90	2
91	87
92	14
93	64
94	18
95	288
96	73
97	10
98	9
100	2
103	5
104	2
105	10
106	3
107	16
108	9
109	396
110	56
111	123
112	11
115	2
121	4
122	4
123	269
124	30
125	2
137	17
138	2
152	165
153	20
