Mass Spectrum: Naphthalene, 1,2,3,4,4a,5,6,8a-octahydro-4a,8-dimethyl-
Formula: C12H20
CAS: 55976-09-5
Molecular weight: 164
m/z	intensity
15	38
16	1
17	4
18	14
26	11
27	190
28	37
29	141
30	3
37	2
38	9
39	196
40	34
41	301
42	24
43	40
44	1
45	1
50	11
51	86
52	40
53	173
54	31
55	208
56	19
57	999
58	4
59	2
60	1
61	2
62	9
63	33
64	11
65	74
66	34
67	226
68	74
69	57
70	4
71	2
72	1
73	14
74	5
75	8
76	4
77	139
78	38
79	185
80	42
81	255
82	41
83	25
84	2
86	1
87	2
89	7
90	4
91	152
92	29
93	192
94	42
95	116
96	51
97	6
98	1
101	1
102	3
103	14
104	7
105	60
106	14
107	143
108	63
109	370
110	37
111	2
115	12
116	4
117	9
118	3
119	16
120	8
121	55
122	42
123	97
124	10
125	1
127	1
128	4
129	2
131	2
133	6
134	3
135	155
136	26
137	3
147	5
148	5
149	877
150	106
151	13
152	1
161	1
163	4
164	179
165	23
166	4
