Mass Spectrum: Benzene, [1-chloro-2-(chloromethyl)-3-methoxypropyl]-
Formula: C11H14Cl2O
CAS: 55976-04-0
Molecular weight: 232
m/z	intensity
14	2
15	60
18	7
26	4
27	38
28	62
29	74
30	5
31	12
32	16
36	2
37	17
38	3
39	119
40	10
41	52
42	6
44	10
45	782
46	19
49	17
50	38
51	112
52	22
53	16
58	12
59	3
61	8
62	25
63	96
64	30
65	79
66	6
71	65
72	12
73	101
74	25
75	43
76	20
77	92
78	41
79	31
80	3
81	10
86	8
87	14
88	9
89	125
90	34
91	399
92	41
93	3
95	2
99	29
100	3
101	19
102	30
103	71
104	47
105	36
106	9
107	19
109	10
113	3
114	5
115	223
116	57
117	658
118	72
119	11
120	1
121	24
122	7
123	5
124	5
125	999
126	167
127	358
128	114
129	368
130	54
131	30
132	8
133	6
134	14
135	3
138	229
139	34
140	77
141	13
144	3
145	7
146	5
147	126
148	22
149	7
150	3
151	539
152	125
153	195
154	43
155	10
159	10
160	5
161	35
162	9
163	5
164	46
165	487
166	76
167	165
168	22
169	9
196	12
197	10
198	3
199	11
200	564
201	67
202	367
203	42
204	61
205	9
232	5
234	3
