Mass Spectrum: D-Glucose, O-2,3,4,6-tetra-O-methyl-.beta.-D-galactopyranosyl-(1.fwdarw.6)-O-2,3,4-tri-O-methyl-.beta.-D-galactopyranosyl-(1.fwdarw.4)-2,3,5,6-tetra-O-methyl-
Formula: C29H54O16
CAS: 55975-30-9
Molecular weight: 658
m/z	intensity
45	170
71	270
75	280
88	999
89	110
99	50
101	420
111	160
115	80
127	140
143	30
145	60
155	80
159	30
187	220
201	10
219	170
279	60
305	14
349	3
359	2
391	2
423	140
483	2
