Mass Spectrum: 5H-Cyclohepta-1,4-dioxin, 2,3,4a,6,7,9a-hexahydro-, trans-
Formula: C9H14O2
CAS: 55975-33-2
Molecular weight: 154
m/z	intensity
14	25
15	200
16	7
17	17
18	60
19	23
26	70
27	645
28	273
29	492
30	100
31	102
32	3
37	107
38	43
39	585
40	183
41	615
42	188
43	792
44	255
45	320
46	9
47	3
50	31
51	141
52	70
53	260
54	215
55	263
56	70
57	58
58	66
59	44
60	3
61	6
62	19
63	50
64	13
65	117
66	123
67	214
68	63
69	123
70	87
71	56
72	44
73	531
74	22
75	13
76	6
77	166
78	79
79	261
80	53
81	115
82	66
83	40
84	31
85	7
86	145
87	53
88	4
89	7
90	5
91	99
92	272
93	63
94	22
95	57
96	42
97	29
98	64
99	691
100	999
101	58
102	6
104	3
105	9
107	4
109	23
110	27
111	12
112	204
113	24
123	4
124	5
125	44
126	39
127	4
139	26
153	9
154	376
156	3
