Mass Spectrum: 6-Undecen-3-one, 5-butyl-2,2-dimethyl-, (E)-
Formula: C17H32O
CAS: 55976-05-1
Molecular weight: 252
m/z	intensity
15	13
16	2
17	9
18	31
26	4
27	104
28	22
29	192
30	4
31	3
32	1
37	1
38	240
39	63
40	12
41	278
42	29
43	96
44	6
45	5
50	1
51	11
52	7
53	41
54	78
55	250
56	32
57	999
58	51
59	3
63	3
64	1
65	13
66	9
67	85
68	31
69	123
70	21
71	30
72	2
73	4
75	1
77	15
78	4
79	20
80	6
81	47
82	17
83	125
84	11
85	126
86	14
87	4
91	7
92	1
93	5
94	2
95	30
96	11
97	153
98	14
99	3
100	1
101	1
105	1
107	3
108	1
109	14
110	10
111	58
112	68
113	13
114	2
121	2
123	5
125	8
126	3
127	1
135	1
137	5
138	2
139	8
140	1
151	2
152	31
153	41
154	5
165	1
166	3
167	8
168	2
169	1
177	4
179	2
181	4
182	1
193	2
194	3
195	89
196	13
197	2
209	2
252	10
253	2
