Mass Spectrum: 3,5-Pyridinedicarboxylic acid, 1,4-dihydro-2,6-dimethyl-4-(3-nitrophenyl)-, methyl 2-[methyl(phenylmethyl)amino]ethyl ester
Formula: C26H29N3O6
CAS: 55985-32-5
Molecular weight: 479
m/z	intensity
36	5
38	3
39	7
41	6
42	42
43	7
44	10
45	4
47	1
50	5
51	6
52	2
53	5
54	1
55	2
56	20
57	2
58	3
59	6
60	1
63	8
64	4
65	40
66	3
67	37
68	2
70	2
71	2
72	2
73	3
74	1
75	3
76	5
77	11
78	7
79	4
80	2
81	1
82	1
83	2
84	2
85	2
87	1
89	12
90	2
91	999
92	84
93	6
95	3
96	2
97	1
99	1
101	1
102	3
103	3
104	13
105	24
106	16
107	2
109	2
110	1
112	2
113	2
114	2
115	9
116	2
117	5
118	10
119	4
120	48
121	7
122	4
124	1
126	2
127	7
128	5
129	3
130	3
131	3
132	38
134	759
135	80
136	2
137	1
139	11
140	12
141	3
143	2
144	5
145	3
146	301
147	511
148	177
149	20
150	27
151	5
152	6
153	4
154	4
155	2
160	4
162	1
163	1
164	12
165	102
166	23
167	9
168	7
169	2
171	2
178	12
179	4
180	12
181	13
182	9
183	2
192	9
193	7
194	3
196	4
197	4
208	5
209	11
210	53
211	9
212	1
225	6
226	8
227	3
228	3
236	5
237	1
239	3
240	1
241	4
253	2
254	3
255	2
260	1
263	1
265	2
266	2
267	1
268	2
269	5
271	3
273	1
283	2
284	1
285	2
287	2
299	1
301	6
313	2
315	36
316	6
317	1
329	1
331	5
332	1
341	1
345	9
357	4
359	5
393	2
448	10
449	4
