Mass Spectrum: D-Glucose, O-2,3,4,6-tetra-O-methyl-.beta.-D-glucopyranosyl-(1.fwdarw.3)-2,4,6-tri-O-methyl-.beta.-D-glucopyranosyl-(1.fwdarw.6)-2,3,4,5-tetra-O-methyl-
Formula: C29H54O16
CAS: 55991-81-6
Molecular weight: 658
m/z	intensity
45	270
71	280
75	340
88	999
89	140
99	50
101	490
111	140
115	50
127	150
143	30
145	80
155	120
159	20
187	460
219	90
305	7
331	4
359	5
391	23
423	11
483	28
