Mass Spectrum: 4-Aminobutanoic acid
Formula: C4H9NO2
CAS: 56-12-2
Molecular weight: 103
m/z	intensity
13	1
14	4
15	9
16	2
17	4
18	13
25	3
26	16
27	44
28	124
29	32
30	999
31	21
32	3
37	4
38	5
39	26
40	17
41	97
42	88
43	139
44	97
45	21
46	3
47	1
51	2
52	6
53	2
54	9
55	12
56	44
57	10
58	2
59	2
60	4
61	2
66	2
67	1
68	3
69	13
70	1
71	1
73	7
74	3
75	2
81	1
82	1
83	2
84	44
85	116
86	14
87	2
88	1
97	1
102	1
103	56
104	4
105	1
