Mass Spectrum: Carbon Tetrachloride
Formula: CCl4
CAS: 56-23-5
Molecular weight: 152
m/z	intensity
12	4
35	105
37	36
47	196
48	2
49	67
50	1
82	243
83	4
84	160
85	2
86	26
117	999
119	958
120	12
121	345
122	4
123	38
