Mass Spectrum: Benzyltriethylammonium chloride
Formula: C13H22ClN
CAS: 56-37-1
Molecular weight: 227
m/z	intensity
41	45
42	105
43	27
44	93
45	27
46	2
47	1
48	2
49	16
50	49
51	59
52	18
53	4
54	11
55	8
56	55
57	19
58	177
59	7
60	3
61	18
62	44
63	101
64	42
65	132
66	13
67	0
68	2
69	2
70	22
71	10
72	23
73	10
74	9
75	8
76	4
77	8
78	3
79	2
80	0
81	0
82	0
84	5
86	719
87	40
88	3
89	70
91	999
92	205
93	3
97	2
98	0
99	10
100	49
101	147
102	11
103	1
104	1
105	1
106	1
107	0
117	1
118	1
123	0
124	1
125	27
126	214
127	25
128	71
129	5
130	0
132	0
134	0
141	0
146	1
148	85
149	11
150	1
160	0
162	4
163	22
164	3
192	1
