Mass Spectrum: Glycine
Formula: C2H5NO2
CAS: 56-40-6
Molecular weight: 75
m/z	intensity
12	5
13	3
15	2
16	15
17	17
18	77
26	4
27	32
28	80
29	45
30	999
31	20
39	2
40	9
41	4
42	7
43	4
44	57
45	27
46	5
54	2
55	2
56	2
57	4
67	1
69	3
70	2
71	3
75	36
76	1
