Mass Spectrum: Alanine
Formula: C3H7NO2
CAS: 56-41-7
Molecular weight: 89
m/z	intensity
12	1
13	1
14	6
15	43
16	2
17	3
18	45
19	1
25	3
26	12
27	42
28	163
29	15
30	6
32	1
36	2
38	9
39	11
40	34
41	52
42	205
43	66
44	999
45	31
46	15
47	1
51	1
52	1
53	2
54	2
55	8
56	5
57	2
69	1
70	1
71	8
72	1
73	2
74	24
75	2
88	1
89	2
