Mass Spectrum: Trimethylbenzylammonium chloride
Formula: C10H16ClN
CAS: 56-93-9
Molecular weight: 185
m/z	intensity
13	1
14	5
15	66
26	7
27	18
28	17
29	18
30	97
31	2
35	3
36	9
37	9
38	21
39	89
40	15
41	31
42	149
43	38
44	76
45	26
47	4
48	2
49	9
50	93
51	49
52	30
53	2
54	1
56	9
57	34
58	803
59	215
60	18
61	9
62	24
63	67
64	16
65	135
66	8
67	3
73	5
74	4
75	5
76	3
77	10
78	3
85	3
86	4
87	3
88	1
89	53
90	20
91	999
92	100
93	5
99	5
101	1
103	1
104	1
105	1
117	2
118	10
119	2
120	10
132	7
133	1
134	123
135	190
136	22
137	2
