Mass Spectrum: 1-Pentene, 2,3,3-trimethyl-
Formula: C8H16
CAS: 560-23-6
Molecular weight: 112
m/z	intensity
24	2
26	6
27	161
29	119
30	1
36	7
37	2
38	9
39	245
40	12
41	429
42	42
43	170
44	1
46	0
47	1
51	6
52	0
53	83
54	14
55	999
56	72
57	22
60	1
62	2
63	5
64	4
65	25
66	10
67	66
68	13
69	99
70	49
71	20
79	7
80	0
81	18
82	23
83	841
84	116
85	7
86	1
87	1
93	1
95	6
96	2
97	84
98	7
99	1
104	1
110	2
112	51
113	5
