Mass Spectrum: Card-20(22)-enolide, 3-[(2,6-dideoxy-4-O-.beta.-D-glucopyranosyl-3-O-methyl-.beta.-D-ribo-hexopyranosyl)oxy]-5,14-dihydroxy-19-oxo-, (3.beta.,5.beta.)-
Formula: C36H54O14
CAS: 560-53-2
Molecular weight: 710
m/z	intensity
41	231
42	88
43	345
44	91
45	293
47	27
49	13
50	3
51	19
52	4
53	96
54	11
55	212
56	33
57	291
58	88
59	129
60	225
61	140
65	46
66	14
67	164
68	37
69	281
71	229
73	306
74	157
75	17
77	51
79	88
81	307
82	9
83	83
84	22
85	326
87	999
88	38
89	36
91	149
92	13
93	50
95	243
96	130
97	196
98	49
99	78
100	36
101	41
103	32
104	6
105	60
106	4
107	42
108	3
109	53
111	101
112	8
113	216
114	5
115	56
116	9
117	45
118	5
119	40
120	13
121	22
122	3
123	13
124	3
125	24
126	3
127	123
128	24
129	33
130	10
131	66
132	4
133	45
134	8
135	15
139	4
140	19
141	38
142	8
143	52
144	36
145	214
146	37
147	25
149	5
153	4
155	16
157	17
158	8
159	18
160	32
161	44
162	16
163	38
165	4
169	7
171	9
173	24
179	9
181	8
183	7
185	9
187	29
189	7
197	12
199	4
215	8
249	11
275	10
322	11
323	21
340	32
341	17
351	9
369	6
