Mass Spectrum: N-Benzyl-heptafluoro butanamide
Formula: C11H8F7NO
CAS: 560-02-1
Molecular weight: 303
m/z	intensity
39	40
44	30
50	20
51	58
65	69
69	90
77	69
78	30
79	70
89	30
90	29
91	999
92	79
104	60
107	40
119	10
134	80
141	39
169	30
184	78
302	39
303	497
304	70
