Mass Spectrum: 2,2,3,3,4,4,5,5-Octafluoropentan-1-ol, trimethylsilyl ether
Formula: C8H12F8OSi
CAS: 56002-63-2
Molecular weight: 304
m/z	intensity
15	2
27	2
28	2
29	28
30	1
31	4
33	4
39	1
41	1
42	7
43	23
44	7
45	35
46	3
47	32
48	2
49	35
51	63
52	1
53	3
54	1
55	5
56	2
57	8
58	9
59	10
61	34
62	6
63	51
64	8
65	3
67	3
69	42
70	2
71	2
73	248
74	23
75	24
76	39
77	999
78	78
79	44
80	4
81	51
82	9
83	14
84	1
85	1
87	1
88	2
89	2
90	1
91	12
92	1
93	5
95	142
97	190
98	14
99	7
100	6
101	33
103	47
104	5
105	9
106	2
107	17
108	2
109	2
111	8
112	2
113	23
114	1
115	1
119	3
123	13
125	34
126	3
127	2
129	2
131	10
132	1
137	1
138	3
141	4
142	3
143	10
145	329
146	14
151	2
153	1
157	1
161	2
163	1
173	6
187	6
188	1
193	161
194	9
289	132
290	17
291	5
