Mass Spectrum: 3-Decanethiol
Formula: C10H22S
CAS: 56009-26-8
Molecular weight: 174
m/z	intensity
41	902
42	276
43	999
44	17
45	51
47	205
55	846
56	605
57	876
58	25
59	25
60	74
61	64
69	653
70	492
71	471
72	7
73	10
74	202
75	435
81	12
82	71
83	223
84	315
85	461
86	15
87	15
88	15
89	15
96	53
97	302
98	151
99	71
100	20
101	15
102	17
110	23
111	274
112	123
140	446
141	87
145	135
174	523
175	43
176	10
