Mass Spectrum: 2-Butenoic acid, 2-methoxy-, methyl ester, (Z)-
Formula: C6H10O3
CAS: 56009-30-4
Molecular weight: 130
m/z	intensity
27	250
29	390
39	230
41	300
43	420
45	350
53	50
55	860
57	999
59	160
69	120
71	250
98	80
115	160
130	20
