Mass Spectrum: 3-Decanamine, 3-methoxy-
Formula: C11H25NO
CAS: 56009-24-6
Molecular weight: 187
m/z	intensity
41	132
42	25
43	45
44	23
45	53
55	74
56	142
57	45
58	999
59	43
69	25
70	23
71	51
73	91
83	23
84	25
109	63
126	153
127	15
156	12
158	122
159	17
169	2
