Mass Spectrum: Cyclohexane, 1-(1,5-dimethylhexyl)-4-(4-methylpentyl)-
Formula: C20H40
CAS: 56009-20-2
Molecular weight: 280
m/z	intensity
41	820
43	999
55	980
57	810
67	430
69	890
71	390
81	530
83	720
95	420
96	400
97	800
109	210
111	350
112	140
121	50
123	110
125	100
135	30
137	50
149	30
151	40
165	80
166	200
167	100
180	50
191	30
193	30
194	30
195	30
231	10
233	20
235	10
279	10
280	50
281	20
