Mass Spectrum: 9,10-Secocholesta-5,7,10(19)-triene-3,25,26-triol, (3.beta.,5Z,7E)-, 3TMS derivative
Formula: C36H68O3Si3
CAS: 56009-11-1
Molecular weight: 632
m/z	intensity
116	76
117	488
118	999
119	369
120	88
121	146
145	242
146	65
147	623
148	76
149	100
150	26
207	26
208	203
209	92
214	26
215	38
216	19
217	34
218	26
219	169
220	38
221	46
222	23
223	38
224	23
225	53
226	38
251	88
252	34
253	126
254	38
255	38
259	23
261	15
269	26
271	15
279	30
280	23
281	34
282	11
283	11
289	19
301	15
307	30
308	23
349	50
350	19
351	26
439	53
440	23
441	15
452	19
470	26
527	30
528	23
529	111
530	53
531	30
542	46
543	26
544	15
617	23
632	61
633	30
634	15
