Mass Spectrum: Glutamic acid, 2-methyl-, dimethyl ester
Formula: C8H15NO4
CAS: 56009-38-2
Molecular weight: 189
m/z	intensity
30	70
42	340
43	80
55	440
56	80
70	660
71	70
98	999
99	160
102	490
112	90
114	90
130	890
131	140
158	110
