Mass Spectrum: 2-Pentenoic acid, 2-methoxy-3-methyl-, methyl ester
Formula: C8H14O3
CAS: 56009-35-9
Molecular weight: 158
m/z	intensity
27	280
29	450
39	360
40	90
41	710
42	200
43	999
45	620
53	170
55	260
56	140
57	620
59	330
67	160
68	90
69	260
71	110
73	320
79	70
80	50
81	170
82	50
83	140
85	170
95	70
97	170
99	190
113	90
114	90
115	70
125	140
129	930
130	90
143	210
