Mass Spectrum: 2-Butenoic acid, 2-methoxy-3-methyl-, methyl ester
Formula: C7H12O3
CAS: 56009-32-6
Molecular weight: 144
m/z	intensity
14	13
15	196
16	3
17	1
25	2
26	27
27	248
28	54
29	269
30	17
31	32
32	2
33	7
37	12
38	35
39	331
40	52
41	377
42	159
43	999
44	36
45	389
46	9
47	2
49	3
50	21
51	34
52	13
53	148
54	57
55	571
56	55
57	49
58	4
59	258
60	8
61	8
62	1
63	1
64	1
65	9
66	17
67	94
68	47
69	146
70	31
71	409
72	21
73	188
74	24
75	4
77	1
79	1
80	1
81	26
82	56
83	239
84	33
85	369
86	23
87	7
88	1
93	1
94	25
95	15
96	43
97	71
98	6
99	63
100	74
101	52
102	8
103	2
109	1
111	41
112	11
113	25
114	11
115	24
116	3
125	3
126	37
127	40
128	22
129	556
130	39
131	4
132	1
143	7
144	1
