Mass Spectrum: 3(2H)-Selenophenone, 2-(dihydro-4,4-dimethyl-3-oxoselenophene-2(3H)-ylidene)dihydro-4,4-dimethyl-
Formula: C12H16O2Se2
CAS: 56009-21-3
Molecular weight: 352
m/z	intensity
41	999
42	82
43	480
44	22
45	65
47	42
53	265
54	120
55	937
56	190
57	222
58	20
59	80
60	92
61	30
64	37
65	72
66	70
67	942
68	534
69	385
70	45
71	45
77	100
78	130
79	230
80	190
81	894
82	899
83	252
84	20
85	80
91	32
92	42
93	42
94	32
95	622
96	225
97	100
107	17
108	17
109	719
110	397
111	67
123	150
124	97
128	22
130	20
131	12
132	97
133	97
134	230
135	22
136	475
137	30
138	80
178	72
179	30
180	150
181	82
182	270
183	25
184	400
185	15
186	97
193	35
206	22
207	15
208	80
209	45
210	135
211	15
212	150
214	32
222	27
260	20
261	30
262	150
263	95
264	407
265	232
266	699
267	92
268	799
269	60
270	230
271	15
272	7
289	17
291	37
292	20
294	70
296	80
298	20
344	20
345	32
346	147
347	100
348	400
349	245
350	699
351	120
352	784
353	95
354	240
355	25
356	12
