Mass Spectrum: 3-Bromopropyl isocyanate
Formula: C4H6BrNO
CAS: 56017-72-2
Molecular weight: 163
m/z	intensity
10	0
12	6
13	10
14	28
15	66
16	2
19	0
22	0
24	7
25	39
26	216
27	503
28	553
29	67
30	4
36	4
37	25
38	53
39	165
40	75
41	359
42	64
43	6
51	16
52	24
54	100
56	999
57	30
58	2
62	0
63	0
64	0
68	2
69	2
70	2
79	32
80	17
81	37
82	45
83	145
84	81
85	3
86	0
91	3
92	4
93	20
94	4
95	18
96	0
103	0
104	1
105	4
106	9
107	47
108	9
109	41
110	1
117	0
120	263
122	259
123	9
133	0
134	1
135	3
136	1
137	2
162	1
163	3
164	1
165	3
