Mass Spectrum: 1,5-Methano-1H-indene, 2,3,3a,4,5,7a-hexahydro-
Formula: C10H14
CAS: 56018-84-9
Molecular weight: 134
m/z	intensity
25	1
26	31
27	205
28	32
29	67
30	1
37	9
38	30
39	314
40	33
41	176
42	9
43	4
44	0
49	3
50	54
51	137
52	72
53	82
54	30
55	33
56	17
57	3
58	1
61	4
62	17
63	47
64	11
65	122
66	52
67	65
68	6
69	3
73	2
74	13
75	9
76	9
77	578
78	351
79	999
80	168
81	16
82	2
83	0
85	1
86	2
87	2
88	0
89	13
90	3
91	812
92	990
93	309
94	23
95	3
97	1
98	1
99	0
101	1
102	6
103	28
104	16
105	159
106	72
107	8
108	2
115	27
116	10
117	20
118	3
119	148
120	26
121	2
126	0
127	2
128	6
129	7
130	2
131	6
132	5
133	18
134	512
135	56
136	4
