Mass Spectrum: Bicyclo[3.2.1]octan-2-ol
Formula: C8H14O
CAS: 5602-48-2
Molecular weight: 126
m/z	intensity
13	3
14	15
15	109
16	4
17	8
18	27
19	8
25	2
26	55
27	501
28	115
29	373
30	22
31	134
32	3
37	12
38	38
39	484
40	83
41	595
42	91
43	170
44	54
45	26
46	2
47	4
48	12
49	4
50	28
51	66
52	31
53	149
54	183
55	270
56	37
57	436
58	244
59	33
60	2
61	2
62	6
63	16
64	5
65	53
66	221
67	999
68	157
69	160
70	116
71	45
72	9
73	2
74	3
75	4
76	2
77	73
78	45
79	356
80	876
81	184
82	326
83	127
84	20
85	18
86	1
89	2
90	2
91	37
92	11
93	254
94	35
95	97
96	20
97	73
98	27
99	2
103	1
105	4
106	3
107	20
108	295
109	34
110	2
111	9
122	5
124	4
125	10
126	114
127	10
