Mass Spectrum: 2-Chloro-5-methylbenzene-1,3-diol
Formula: C7H7ClO2
CAS: 56021-31-9
Molecular weight: 158
m/z	intensity
26	8
27	25
29	19
34	1
36	6
37	29
38	65
39	156
40	29
41	63
42	24
43	53
46	21
47	60
48	8
49	26
50	95
51	154
52	37
53	130
54	22
55	82
56	8
60	11
61	57
62	35
63	75
64	31
65	242
66	107
67	140
68	15
69	236
70	6
72	13
73	29
74	31
75	54
76	17
77	109
78	8
79	63
80	14
81	18
85	11
86	9
87	19
89	24
91	17
93	49
94	50
95	101
96	7
97	8
99	9
100	6
101	15
102	5
103	5
104	1
105	73
106	5
111	12
112	13
113	5
114	6
119	13
121	50
122	8
123	999
124	77
128	9
129	34
130	7
131	18
139	15
140	45
141	20
142	17
143	6
157	92
158	893
159	98
160	298
161	25
162	3
