Mass Spectrum: 2-Oxecanone, 4-hydroxy-10-methyl-, [4R-(4R*,10R*)]-
Formula: C10H18O3
CAS: 56020-70-3
Molecular weight: 186
m/z	intensity
43	680
55	760
56	740
67	680
70	920
82	800
89	999
98	760
109	600
124	120
127	120
140	48
150	56
168	16
