Mass Spectrum: 3,7-Nonadienoic acid, 4,8-dimethyl-, methyl ester, (E)-
Formula: C12H20O2
CAS: 56051-73-1
Molecular weight: 196
m/z	intensity
15	48
27	47
28	10
29	33
31	7
38	8
39	73
40	26
41	394
42	26
43	32
44	5
45	8
50	10
51	25
52	14
53	67
54	13
55	52
56	8
57	10
59	57
63	4
65	20
66	14
67	98
68	172
69	999
70	73
71	10
73	13
74	10
75	2
77	27
78	8
79	32
80	14
81	94
82	17
83	8
85	94
86	17
87	8
91	25
92	10
93	63
94	11
95	30
96	105
97	17
98	23
99	10
104	2
105	13
106	2
107	75
108	14
109	48
110	10
111	10
113	10
114	2
119	1
120	8
121	67
122	151
123	55
124	10
125	8
127	23
128	51
129	10
135	8
136	11
137	38
138	4
140	20
141	8
149	17
152	52
153	258
154	35
164	10
165	8
181	11
182	1
196	35
197	8
