Mass Spectrum: 8-Azabicyclo[3.2.1]octan-3-ol, 6-methoxy-8-methyl-, (3-endo,6-exo)-
Formula: C9H17NO2
CAS: 56051-37-7
Molecular weight: 171
m/z	intensity
41	279
42	758
43	203
44	271
45	161
52	25
53	8
54	97
55	118
56	177
57	165
58	440
59	165
60	16
79	12
80	8
81	59
82	224
83	38
84	152
85	50
86	33
93	25
94	237
95	42
96	898
97	101
98	50
99	8
111	21
112	211
113	999
114	118
120	25
122	55
140	33
171	118
172	12
