Mass Spectrum: Cholestan-3-one, 2-iodo-, cyclic 1,2-ethanediyl acetal, (2.alpha.,5.alpha.)-
Formula: C29H49IO2
CAS: 56052-90-5
Molecular weight: 556
m/z	intensity
41	168
42	9
43	336
45	29
53	19
55	247
56	29
57	257
67	108
68	19
69	138
70	9
71	99
73	79
77	19
79	99
80	19
81	188
82	19
83	69
86	59
87	49
91	69
93	118
94	19
95	168
97	29
99	811
100	59
101	9
105	79
106	9
107	99
108	19
109	59
111	9
112	267
113	39
119	39
121	49
122	9
123	29
125	999
126	99
127	79
128	29
131	9
132	19
133	49
134	19
135	59
136	9
137	19
138	9
139	29
140	19
141	19
143	19
144	19
146	19
147	69
148	19
149	39
150	19
151	29
152	19
153	29
155	19
157	19
158	19
159	49
160	19
161	59
162	19
163	29
164	19
165	49
166	19
167	19
169	39
171	19
173	29
174	19
175	39
176	19
177	19
179	19
181	19
185	19
187	29
189	19
190	19
191	19
193	19
199	19
201	19
203	19
205	19
207	19
213	19
215	19
216	19
217	19
219	19
221	19
225	39
227	19
229	19
231	19
233	19
243	29
244	19
245	29
247	19
254	29
255	29
259	29
261	29
273	29
275	29
287	39
289	29
301	29
303	29
311	29
315	29
316	29
330	39
331	39
332	39
333	39
367	49
368	39
370	39
373	39
398	39
428	405
429	188
430	69
556	118
557	39
558	9
