Mass Spectrum: 2,20-Cyclo-8,9-secoaspidospermidine-3-carboxylic acid, 1,9-diformyl-, methyl ester, (2.alpha.,3.alpha.,5.alpha.,12.beta.,19.alpha.,20R)-
Formula: C23H28N2O4
CAS: 56053-34-0
Molecular weight: 396
m/z	intensity
40	215
41	105
42	60
43	280
44	100
45	580
49	15
50	150
51	170
52	180
53	10
55	20
57	20
58	20
59	750
60	60
63	35
69	10
73	70
74	500
75	40
76	50
77	170
78	999
79	70
91	10
94	10
95	10
96	5
104	5
105	10
109	10
115	5
121	10
122	10
123	20
124	10
128	10
129	10
130	10
143	10
144	10
149	10
154	30
155	20
156	20
157	10
158	10
159	10
167	30
168	30
169	30
170	20
171	20
180	30
181	30
182	30
183	40
184	20
185	5
186	5
187	5
191	10
192	20
193	20
194	40
195	25
196	25
197	30
198	50
199	15
200	15
201	30
202	5
203	10
204	30
205	10
206	25
207	30
208	50
209	15
210	25
211	30
212	10
213	5
214	25
215	150
216	35
217	5
218	5
219	10
220	25
221	15
222	25
223	5
224	15
225	20
226	5
227	80
228	30
229	10
230	10
232	10
233	10
234	30
235	20
236	40
237	20
238	35
239	80
240	20
241	5
242	10
243	20
248	30
249	20
250	30
251	20
252	20
253	20
254	10
260	10
261	10
262	20
263	20
264	40
265	30
266	15
267	20
268	10
270	100
271	50
272	40
273	10
276	30
277	20
278	50
279	30
280	20
281	20
282	20
283	10
284	10
286	10
290	20
291	20
292	20
293	50
294	20
295	30
296	45
297	10
307	45
308	30
309	60
310	45
311	80
312	40
321	60
322	20
323	10
324	10
325	30
326	10
335	30
336	130
337	40
338	10
339	30
340	10
350	10
351	10
353	20
354	10
364	10
365	50
366	30
367	60
368	790
369	200
370	30
382	10
396	110
397	30
