Mass Spectrum: Cholestan-3-one, 2-bromo-, cyclic 1,2-ethanediyl acetal, (2.beta.,5.alpha.)-
Formula: C29H49BrO2
CAS: 56052-89-2
Molecular weight: 508
m/z	intensity
40	20
41	140
42	30
43	270
44	40
45	40
50	20
51	30
52	20
53	20
54	10
55	190
56	60
57	230
58	20
59	10
60	10
61	10
63	10
65	10
66	10
67	70
68	30
69	130
70	40
71	110
72	20
73	40
74	10
76	10
77	40
78	80
79	60
80	20
81	110
82	30
83	70
84	20
85	40
86	70
87	40
88	10
89	10
91	90
92	10
93	60
94	20
95	100
96	20
97	50
98	10
99	999
100	70
101	10
102	10
103	20
104	40
105	60
106	10
107	50
108	20
109	50
110	20
111	30
112	120
113	30
114	10
115	10
116	10
117	10
118	10
119	30
120	10
121	30
122	10
123	30
124	10
125	700
126	60
127	20
128	10
129	10
130	10
131	20
132	20
133	20
134	10
135	20
136	10
137	10
138	10
139	10
140	10
141	10
142	20
143	10
144	10
145	30
146	10
147	50
148	20
149	30
150	10
151	20
152	20
153	20
154	20
155	20
156	20
157	20
158	20
159	20
160	20
161	30
162	20
163	30
164	30
165	30
166	20
167	10
168	20
169	20
170	20
171	10
173	10
174	10
175	20
176	20
177	30
178	20
179	20
180	20
181	20
182	20
183	20
185	20
187	20
189	20
190	20
191	20
192	20
193	20
194	20
195	20
196	20
197	20
198	20
199	20
201	20
202	20
203	20
204	20
205	20
206	20
207	20
208	20
209	20
217	20
218	20
219	20
220	20
221	20
229	20
230	20
231	20
232	20
233	20
234	20
235	20
236	20
237	20
307	10
308	10
311	10
312	10
408	10
429	90
430	40
431	10
508	120
509	40
510	120
511	40
