Mass Spectrum: 1-Propanone, 1-phenyl-3-[2-(phenylmethoxy)phenyl]-
Formula: C22H20O2
CAS: 56052-51-8
Molecular weight: 316
m/z	intensity
51	30
63	10
65	60
77	130
78	10
89	10
91	999
92	80
105	310
106	20
107	10
196	10
225	90
226	10
