Mass Spectrum: 1,3-Dioxolane, 4-hexyl-2-methyl-5-octyl-, (2.alpha.,4.alpha.,5.alpha.)-
Formula: C18H36O2
CAS: 56051-69-5
Molecular weight: 284
m/z	intensity
41	25
42	51
43	188
44	95
45	244
54	36
55	180
56	322
57	420
58	79
59	61
66	49
67	154
68	515
69	644
70	350
71	301
72	134
73	28
80	18
81	154
82	440
83	695
84	175
85	453
86	43
87	12
95	183
96	999
97	883
98	402
99	203
100	46
109	128
110	72
111	255
112	30
113	82
114	54
115	25
123	25
124	541
125	317
126	172
127	231
128	36
137	25
138	10
139	51
140	18
141	72
142	283
143	54
152	20
153	33
155	103
156	20
167	23
168	12
169	18
170	113
171	425
172	51
199	309
200	43
240	20
241	149
242	28
269	404
270	77
283	103
284	25
