Mass Spectrum: 2-Pentene, 5-(pentyloxy)-, (E)-
Formula: C10H20O
CAS: 56052-85-8
Molecular weight: 156
m/z	intensity
39	90
40	10
41	260
42	80
43	999
44	40
45	10
53	20
54	10
55	140
56	10
57	10
67	30
68	30
69	190
70	30
71	840
72	30
99	380
100	10
101	20
155	0
156	0
