Mass Spectrum: Ergost-25-ene-6,12-dione, 3,5-dihydroxy-, (3.beta.,5.alpha.)-
Formula: C28H44O4
CAS: 56052-98-3
Molecular weight: 444
m/z	intensity
53	150
55	960
57	200
59	140
67	370
68	150
69	790
70	410
71	110
77	120
79	300
81	550
82	320
83	360
91	220
93	310
94	110
95	490
96	250
97	180
105	170
107	270
108	110
109	390
110	100
119	130
121	180
122	100
123	260
124	260
125	999
126	100
131	90
133	160
135	200
137	130
143	240
145	80
147	110
149	90
159	90
161	100
163	90
173	40
175	70
177	50
187	70
189	60
191	50
199	20
201	30
203	50
205	40
213	40
215	40
217	30
227	20
229	20
231	60
232	20
233	30
241	40
243	20
245	30
255	30
257	20
259	50
260	20
273	40
274	30
281	20
283	50
286	20
287	30
299	100
300	40
301	40
304	30
311	20
312	10
313	10
314	10
315	20
316	10
317	120
318	60
319	10
327	50
328	20
329	40
330	20
331	20
342	30
343	20
344	10
345	90
346	40
357	70
358	40
359	20
360	60
374	10
380	10
382	10
383	10
384	10
408	10
411	10
426	30
429	10
