Mass Spectrum: Androstan-3-one, 4,4-dimethyl-, oxime, (5.alpha.)-
Formula: C21H35NO
CAS: 56052-62-1
Molecular weight: 317
m/z	intensity
41	200
42	40
43	60
44	10
53	60
54	20
55	200
56	20
57	60
58	200
59	10
65	20
67	170
68	40
69	110
70	30
71	40
77	40
79	110
80	30
81	200
82	80
83	70
84	100
85	40
86	10
91	80
92	20
93	50
94	50
95	250
96	120
97	100
98	150
99	999
100	70
101	70
106	20
107	90
108	50
109	70
110	20
112	50
113	20
114	110
115	10
116	10
119	30
120	20
121	80
122	40
123	40
124	50
131	20
133	40
134	20
135	60
136	30
137	20
138	10
140	380
141	70
142	10
145	20
146	10
147	30
148	30
149	50
150	30
151	10
152	10
176	70
201	30
202	30
203	60
204	20
215	10
216	90
217	90
218	70
219	50
220	10
285	40
286	10
287	10
289	10
299	10
300	30
301	190
302	100
303	130
304	30
317	150
318	40
