Mass Spectrum: Octanoic acid, 2-[(trifluoroacetyl)amino]-, butyl ester
Formula: C14H24F3NO3
CAS: 56051-55-9
Molecular weight: 311
m/z	intensity
41	999
42	111
43	585
44	100
45	80
50	20
51	30
53	50
54	60
55	999
56	181
57	454
58	20
67	60
68	30
69	292
70	121
71	20
73	30
78	30
81	40
82	50
84	40
95	40
96	50
97	818
98	70
114	80
126	161
138	20
139	30
140	40
142	30
152	20
153	60
171	20
210	60
