Mass Spectrum: Ergostane-3,5,6,12-tetrol, (3.beta.,5.alpha.,6.beta.,12.alpha.)-, 3TMS derivative
Formula: C37H74O4Si3
CAS: 56052-12-1
Molecular weight: 666
m/z	intensity
41	100
43	390
55	200
57	230
67	80
69	160
73	999
74	80
75	410
76	210
79	60
81	240
82	10
83	100
84	10
85	50
91	80
93	140
94	20
95	180
103	70
104	10
105	150
106	10
107	150
109	90
117	100
119	120
120	50
121	90
123	60
129	220
130	40
131	90
133	140
134	20
135	50
142	50
143	160
144	40
145	120
146	20
147	140
148	20
149	30
155	70
156	20
157	80
158	10
159	110
161	50
168	20
169	70
171	30
172	20
173	60
181	30
182	20
183	60
185	30
186	20
187	20
193	10
195	40
196	10
197	50
198	20
199	20
207	50
209	50
211	40
213	40
220	180
221	60
223	30
225	50
241	60
251	160
252	40
253	30
255	60
269	200
270	40
279	30
285	20
287	30
341	360
342	90
343	30
344	130
345	40
357	20
358	40
359	250
360	80
361	40
365	40
369	50
377	30
378	30
379	70
380	30
416	120
425	30
431	110
432	30
433	10
442	10
449	10
468	80
469	30
470	10
486	130
487	30
488	10
505	20
506	10
543	10
558	110
559	40
560	20
561	30
562	20
576	160
577	60
578	10
648	120
649	60
650	30
651	20
