Mass Spectrum: 2-Butene, 1-propoxy-, (E)-
Formula: C7H14O
CAS: 56052-71-2
Molecular weight: 114
m/z	intensity
39	190
40	20
41	280
42	60
43	450
44	40
45	10
50	10
51	20
52	10
53	70
54	110
55	999
56	90
57	730
58	50
59	10
60	10
69	20
70	10
71	90
72	590
73	70
85	20
99	50
114	90
115	10
