Mass Spectrum: 2,20-Cycloaspidospermidine, 1-acetyl-6,7-didehydro-3-methyl-, (2.alpha.,3.beta.,5.alpha.,12.beta.,19.alpha.,20R)-
Formula: C22H26N2O
CAS: 56053-36-2
Molecular weight: 334
m/z	intensity
40	25
41	176
42	85
43	999
44	40
45	10
50	10
51	45
52	25
53	65
54	35
55	55
56	25
57	25
58	5
62	5
63	25
64	10
65	60
66	20
67	45
68	30
69	20
70	10
71	10
74	5
75	15
76	15
77	161
78	45
79	126
80	50
81	40
82	15
83	10
84	5
85	5
87	5
88	5
89	30
90	15
91	121
92	55
93	176
94	50
95	20
96	5
97	5
101	15
102	20
103	30
104	15
105	35
106	60
107	80
108	30
109	5
110	5
111	5
113	5
114	10
115	106
116	35
117	40
118	20
119	35
120	136
121	212
122	111
123	20
124	5
125	5
126	5
127	30
128	60
129	40
130	75
131	20
132	15
133	25
134	393
135	247
136	45
137	5
139	10
140	20
141	20
142	30
143	65
144	80
145	20
146	15
147	10
148	5
149	10
151	10
152	20
153	10
154	55
155	50
156	151
157	60
158	101
159	25
160	10
161	5
162	398
163	50
164	10
165	20
166	25
167	85
168	146
169	171
170	398
171	176
172	181
173	25
174	5
176	5
177	10
178	10
179	10
180	60
181	35
182	55
183	35
184	65
185	338
186	505
187	70
188	5
189	5
190	10
191	15
192	20
193	25
194	45
195	40
196	20
197	20
198	15
199	10
200	20
203	5
204	40
205	35
206	50
207	40
208	25
209	15
210	15
211	25
212	45
213	70
214	35
215	5
216	5
217	20
218	35
219	35
220	35
221	25
222	20
223	5
224	10
226	5
227	50
228	25
229	5
230	5
231	10
232	25
233	25
234	30
235	15
236	5
245	10
246	10
247	25
248	15
249	15
250	5
259	10
260	5
261	15
262	10
263	15
264	20
275	15
276	5
277	5
289	15
290	5
291	101
292	25
293	5
305	35
306	10
319	45
320	5
332	20
333	40
334	449
335	106
336	10
