Mass Spectrum: Heptane, 1-(1-butenyloxy)-, (E)-
Formula: C11H22O
CAS: 56052-80-3
Molecular weight: 170
m/z	intensity
39	100
40	10
41	400
42	90
43	450
44	20
53	40
54	50
55	260
56	170
57	880
58	40
67	10
68	10
69	110
70	80
71	50
72	999
73	60
81	10
83	20
85	10
96	10
97	10
98	30
127	50
170	170
171	20
