Mass Spectrum: Hexanamide, 4,4-dimethyl-N-phenyl-
Formula: C14H21NO
CAS: 56051-99-1
Molecular weight: 219
m/z	intensity
41	70
42	10
43	110
51	20
53	10
55	60
56	20
57	70
65	40
66	20
67	10
69	40
70	20
71	90
77	60
83	30
91	20
92	30
93	999
94	110
95	30
97	20
106	20
109	20
119	20
120	50
127	30
135	40
148	40
149	20
190	80
191	40
204	70
205	40
217	30
219	120
220	40
