Mass Spectrum: Cyclopropanebutanoic acid, 2-[[2-[[2-[(2-pentylcyclopropyl)methyl]cyclopropyl]methyl]cyclopropyl]methyl]-, methyl ester
Formula: C25H42O2
CAS: 56051-53-7
Molecular weight: 374
m/z	intensity
41	922
42	154
43	703
44	51
45	64
50	12
51	32
52	25
53	154
54	387
55	967
56	177
57	477
58	38
59	238
60	22
61	12
63	12
65	64
66	96
67	806
68	290
69	596
70	135
71	225
72	32
73	96
74	999
75	232
76	22
77	122
78	51
79	451
80	322
81	741
82	290
83	387
84	135
85	161
86	19
87	696
88	80
89	12
91	193
92	83
93	377
94	432
95	538
96	283
97	251
98	96
99	71
100	16
101	77
102	12
103	12
104	19
105	129
106	80
107	258
108	161
109	225
110	161
111	129
112	58
113	51
114	32
115	51
116	22
117	38
118	51
119	167
120	80
121	290
122	96
123	151
124	64
125	71
126	32
127	32
128	32
129	122
130	32
131	45
132	32
133	112
134	64
135	200
136	154
137	112
138	96
139	38
140	32
141	38
142	38
143	154
144	22
145	32
146	38
147	96
148	48
149	154
150	71
151	64
152	38
153	32
154	19
155	32
156	12
158	12
159	19
160	12
161	83
162	32
163	64
164	38
165	38
166	22
167	32
168	80
169	22
170	12
171	38
172	12
173	25
174	12
175	58
176	25
177	38
178	32
179	32
180	32
181	32
182	12
183	12
185	38
186	12
187	12
189	32
190	12
191	32
192	32
193	25
194	25
195	25
196	12
197	12
199	41
200	12
201	12
203	25
204	12
205	25
206	12
207	25
208	12
209	12
210	12
211	12
213	25
215	12
217	25
218	12
219	25
220	12
221	32
222	32
223	12
224	19
227	71
228	12
229	12
231	12
233	12
234	12
235	25
236	12
237	12
238	12
239	58
240	12
241	32
242	12
243	12
245	12
246	12
247	12
248	12
249	12
250	12
251	12
252	12
255	25
259	25
261	12
263	12
264	32
265	19
266	32
267	19
270	161
271	32
273	12
275	12
277	12
278	12
289	12
291	12
298	38
299	12
303	12
334	12
