Mass Spectrum: Heptanoic acid, 3-methoxyphenyl ester
Formula: C14H20O3
CAS: 56052-16-5
Molecular weight: 236
m/z	intensity
41	59
43	227
55	39
57	29
77	19
81	19
85	29
92	19
93	19
94	49
95	39
113	39
124	999
125	118
126	29
236	79
237	39
