Mass Spectrum: 2-Butene, 1-butoxy-, (E)-
Formula: C8H16O
CAS: 56052-72-3
Molecular weight: 128
m/z	intensity
25	0
26	26
27	351
29	609
30	14
31	36
37	3
38	13
39	282
40	33
41	556
42	71
43	129
44	37
45	10
46	0
49	0
50	10
51	20
52	12
53	86
54	123
55	999
56	193
57	714
58	25
59	3
67	3
68	2
69	25
70	10
71	73
72	724
73	45
74	2
75	0
77	0
79	0
81	1
82	0
83	2
84	1
85	55
86	2
87	2
95	1
97	0
99	0
113	13
114	1
127	1
128	82
129	6
130	0
