Mass Spectrum: Benzeneethanol, 2-(phenylmethoxy)-
Formula: C15H16O2
CAS: 56052-43-8
Molecular weight: 228
m/z	intensity
40	10
41	20
50	10
51	60
52	20
53	20
63	20
65	110
77	70
78	30
79	30
89	20
90	20
91	999
92	80
107	140
108	110
120	60
121	10
165	8
166	4
168	4
169	4
170	4
178	4
179	4
181	4
182	78
183	17
186	4
197	4
198	21
199	4
209	8
210	21
228	8
