Mass Spectrum: Diazene, bis(3-methylcyclohexyl)-, 1,2-dioxide
Formula: C14H26N2O2
CAS: 56052-56-3
Molecular weight: 254
m/z	intensity
41	792
42	217
43	247
44	297
50	19
51	59
52	39
53	118
54	544
55	277
56	227
57	198
60	19
65	49
66	49
67	178
68	999
69	356
70	59
71	19
77	59
78	9
79	99
80	39
81	79
82	69
83	158
84	19
91	19
92	9
93	29
94	59
95	49
96	534
97	69
98	29
106	49
107	49
108	9
109	39
110	99
111	168
112	89
127	19
