Mass Spectrum: Curan-17-oic acid, 14-(acetyloxy)-2,16,19,20-tetradehydro-, methyl ester, (19E)-
Formula: C22H24N2O4
CAS: 56053-20-4
Molecular weight: 380
m/z	intensity
41	220
42	180
43	999
44	570
45	90
47	30
49	20
50	40
51	70
52	40
53	90
54	40
55	170
56	140
57	120
58	20
59	50
60	50
61	10
62	10
63	40
64	20
65	50
66	10
67	60
68	40
69	70
70	50
71	60
72	20
73	30
74	40
75	30
76	30
77	110
78	40
79	50
80	180
81	60
82	70
83	90
84	290
85	70
86	50
87	30
88	20
89	30
90	20
91	70
92	20
93	60
94	40
95	120
96	70
97	70
98	40
99	10
101	40
102	50
103	40
104	30
105	40
106	70
107	30
108	60
109	50
110	30
111	20
112	10
113	20
114	20
115	100
116	60
117	50
118	20
119	30
120	40
121	999
122	140
123	50
124	30
125	40
126	30
127	70
128	110
129	60
130	110
131	30
132	10
133	30
134	10
135	40
136	60
137	130
138	50
139	80
140	70
141	50
142	40
143	80
144	100
145	20
146	10
147	10
148	10
149	80
150	30
151	40
152	60
153	80
154	190
155	90
156	110
157	50
158	60
159	20
160	40
161	20
163	20
164	40
165	110
166	170
167	200
168	120
169	90
170	50
171	20
172	40
173	10
174	20
175	10
176	30
177	60
178	100
179	190
180	200
181	110
182	70
183	70
184	30
185	50
186	10
189	10
190	70
191	120
192	160
193	190
194	160
195	60
196	30
197	20
198	10
199	30
200	10
201	10
202	30
203	30
204	130
205	90
206	230
207	160
208	140
209	60
210	40
211	10
212	10
213	20
214	50
215	30
216	90
217	90
218	110
219	110
220	170
221	120
222	70
223	30
224	20
225	80
226	20
227	30
228	10
229	30
230	30
231	40
232	90
233	150
234	160
235	100
236	60
237	10
238	100
239	40
240	30
241	160
242	40
243	10
244	10
245	50
246	60
247	270
248	100
249	80
250	40
251	30
252	200
253	60
254	20
255	10
259	30
260	50
261	210
262	90
263	90
264	50
265	30
266	110
267	50
268	10
273	10
275	10
276	10
277	70
278	60
279	130
280	70
281	20
287	20
288	30
289	90
290	20
291	20
292	20
293	50
294	40
295	10
305	120
306	70
307	40
308	10
309	50
319	40
320	140
321	500
322	210
323	50
337	70
338	40
339	10
341	20
347	10
348	10
349	50
352	60
353	10
355	10
356	10
364	10
370	40
379	40
380	860
381	220
382	30
