Mass Spectrum: Heptanoic acid, 4-methoxyphenyl ester
Formula: C14H20O3
CAS: 56052-15-4
Molecular weight: 236
m/z	intensity
41	40
43	130
55	10
93	20
109	90
111	10
113	10
123	10
124	999
125	80
236	30
