Mass Spectrum: Heptane, 1-(2-butenyloxy)-, (E)-
Formula: C11H22O
CAS: 56052-77-8
Molecular weight: 170
m/z	intensity
39	170
40	20
41	440
42	110
43	520
44	20
45	10
50	10
51	20
52	10
53	60
54	110
55	999
56	200
57	870
58	40
67	20
68	20
69	90
70	70
71	40
72	790
73	50
81	10
83	10
85	10
96	20
97	40
98	40
99	10
127	90
128	10
170	10
