Mass Spectrum: Oxirane, 2-ethyl-3-propyl-, trans-
Formula: C7H14O
CAS: 56052-95-0
Molecular weight: 114
m/z	intensity
40	75
41	999
42	162
43	506
44	93
45	43
50	18
51	25
52	6
53	56
54	50
55	325
56	150
57	625
58	181
59	231
60	6
65	6
67	68
68	12
69	18
70	6
71	56
72	400
73	37
77	6
79	12
81	68
85	218
86	12
96	25
97	6
99	37
