Mass Spectrum: N-[3-Hydroxypropyl]succinimide
Formula: C7H11NO3
CAS: 56058-21-0
Molecular weight: 157
m/z	intensity
41	371
42	181
43	183
44	441
45	48
46	7
47	1
49	5
50	8
51	16
52	18
53	27
54	112
55	885
56	999
57	321
58	92
59	9
60	2
61	1
63	1
64	1
65	3
66	5
67	16
68	76
69	67
70	102
71	66
72	100
73	12
74	36
75	3
76	17
77	6
78	10
79	3
80	38
81	7
82	120
83	137
84	683
85	173
86	15
87	7
88	2
91	1
92	3
93	3
94	12
95	1
96	73
97	25
98	64
99	120
100	213
101	17
102	4
103	1
104	1
105	8
106	7
107	1
109	1
110	47
111	54
112	169
113	690
114	41
115	4
120	1
121	2
122	1
123	12
124	13
126	47
127	498
128	32
129	5
130	6
131	6
132	1
133	2
138	7
139	537
140	159
141	12
142	1
155	6
156	38
157	89
158	7
159	1
