Mass Spectrum: Curan, 1-acetyl-16,17,19,20-tetradehydro-
Formula: C21H24N2O
CAS: 56053-16-8
Molecular weight: 320
m/z	intensity
41	200
42	170
43	999
44	100
45	20
50	20
51	70
52	30
53	120
54	60
55	60
56	100
59	10
63	40
64	10
65	90
66	10
67	50
68	70
69	20
70	20
75	20
76	20
77	270
78	60
79	70
80	60
81	20
82	180
83	20
89	40
90	20
91	210
92	50
93	120
94	70
95	20
96	60
97	40
98	10
101	20
102	40
103	50
104	30
105	70
106	90
107	70
108	70
109	20
110	10
113	10
114	20
115	150
116	50
117	90
118	50
119	80
120	90
121	100
122	160
123	20
124	20
125	10
126	10
127	40
128	60
129	50
130	300
131	70
132	70
133	40
134	70
135	140
136	20
138	10
139	50
140	30
141	30
142	50
143	190
144	290
145	40
146	70
147	60
148	350
149	40
150	20
151	10
152	30
153	10
154	50
155	30
156	60
157	30
158	40
159	20
160	20
161	10
165	20
166	20
167	100
168	80
169	40
170	60
171	30
172	40
173	20
178	20
179	20
180	130
181	100
182	80
183	30
184	20
185	70
186	50
187	10
190	10
191	30
192	40
193	60
194	100
195	40
196	40
197	20
198	10
203	10
204	50
205	40
206	80
207	70
208	80
209	40
210	10
217	30
218	60
219	40
220	60
221	40
222	50
223	40
224	20
225	30
231	10
232	30
233	40
234	40
235	60
236	60
237	30
238	20
245	10
246	30
247	30
248	40
249	60
250	30
251	20
260	20
261	30
262	50
263	60
264	20
265	20
275	30
276	30
277	310
278	130
279	40
280	20
291	40
292	40
293	20
303	30
304	30
305	420
306	120
307	30
318	50
319	160
320	770
321	190
323	30
