Mass Spectrum: 2-Cyclohexen-1-one, 4-(2-oxopropyl)-
Formula: C9H12O2
CAS: 56051-94-6
Molecular weight: 152
m/z	intensity
41	90
43	999
51	30
52	20
53	111
55	40
58	40
66	30
67	40
68	60
79	20
81	232
82	20
92	20
94	181
95	121
96	20
109	272
110	40
121	40
152	20
