Mass Spectrum: Heptane, 1-(1-butenyloxy)-, (Z)-
Formula: C11H22O
CAS: 56052-79-0
Molecular weight: 170
m/z	intensity
39	100
40	10
41	400
42	90
43	470
44	20
53	40
54	50
55	260
56	170
57	870
58	40
67	10
68	10
69	100
70	80
71	50
72	999
73	60
81	10
83	10
85	10
96	10
97	10
98	30
127	40
170	150
171	10
