Mass Spectrum: Butanedioic acid, (methoxyimino)-, dimethyl ester
Formula: C7H11NO5
CAS: 56051-79-7
Molecular weight: 189
m/z	intensity
40	122
41	90
42	213
43	53
44	16
45	498
46	10
47	10
50	7
51	10
52	25
53	27
54	116
55	167
56	115
57	25
58	72
59	999
60	32
61	12
67	21
68	87
69	13
70	21
71	61
72	119
73	13
74	130
75	10
79	29
82	37
83	7
85	9
86	37
88	6
98	39
99	30
100	688
101	75
102	202
103	15
114	9
128	13
129	15
130	85
131	18
147	40
157	8
158	107
159	17
161	40
189	10
