Mass Spectrum: 2-Propanone, 1-(pentylthio)-
Formula: C8H16OS
CAS: 56052-25-6
Molecular weight: 160
m/z	intensity
41	600
42	140
43	999
44	10
45	70
46	40
47	70
55	80
58	80
59	30
60	140
61	800
62	20
63	20
69	730
70	70
73	30
75	50
86	10
87	50
90	20
102	90
103	130
117	120
160	290
161	20
