Mass Spectrum: Pyrrolidine, 1-(1-oxo-9,11-octadecadienyl)-, (Z,Z)-
Formula: C22H39NO
CAS: 56051-64-0
Molecular weight: 333
m/z	intensity
41	313
42	59
43	313
44	59
45	7
50	7
51	7
52	7
53	48
54	66
55	501
56	97
57	97
58	69
59	7
60	41
65	17
66	7
67	205
68	62
69	160
70	470
71	191
72	445
73	31
74	20
75	38
76	7
77	38
78	7
79	90
80	41
81	135
82	27
83	55
84	20
85	128
86	7
87	7
91	31
92	3
93	34
94	7
95	66
96	20
97	27
98	264
99	38
100	7
107	20
108	7
109	27
110	7
111	20
112	27
113	999
114	94
115	7
119	7
121	52
122	7
123	7
124	7
125	7
126	641
127	139
128	7
129	7
133	7
135	7
136	7
137	7
138	7
139	7
140	90
141	24
142	7
149	20
150	7
151	7
152	20
153	7
154	41
155	7
163	7
165	7
166	7
167	7
168	76
169	20
178	7
180	20
181	7
182	101
183	20
194	20
196	27
197	7
206	7
208	20
209	7
210	7
220	3
222	69
223	24
224	24
234	24
235	3
236	62
237	20
238	3
248	3
250	27
251	3
262	10
263	7
264	7
276	20
277	10
278	10
290	24
292	7
304	3
333	404
334	104
335	38
336	3
