Mass Spectrum: Heptanoic acid, 3-nitrophenyl ester
Formula: C13H17NO4
CAS: 56052-18-7
Molecular weight: 251
m/z	intensity
41	128
42	29
43	821
44	29
55	79
56	19
57	118
63	19
64	19
65	19
68	19
69	39
75	19
76	19
84	19
85	198
86	19
92	19
93	19
95	29
99	19
109	39
113	999
114	89
139	19
181	29
251	29
