Mass Spectrum: 2,20-Cyclo-8,9-secoaspidospermidine, 9-acetyl-1,3-dimethyl-, (2.alpha.,3.beta.,5.alpha.,12.beta.,19.alpha.,20R)-
Formula: C23H32N2O
CAS: 56053-39-5
Molecular weight: 352
m/z	intensity
41	175
42	137
43	999
44	62
51	8
53	37
54	20
55	112
56	29
57	8
65	12
67	37
68	20
69	62
70	25
77	50
79	20
80	8
81	20
82	8
83	8
91	37
93	8
94	8
95	8
103	8
105	8
107	8
109	8
115	45
116	8
117	8
122	8
123	33
124	50
127	8
128	33
129	20
130	20
131	8
132	8
136	20
140	8
141	12
142	12
143	33
144	87
145	12
149	33
151	4
152	8
153	12
154	37
155	20
156	29
157	75
158	75
159	12
161	4
165	4
166	12
167	45
168	87
169	66
170	208
171	70
172	54
173	12
176	20
178	4
180	25
181	41
182	79
183	75
184	287
185	333
186	58
187	8
191	4
192	4
193	12
194	45
195	45
196	79
197	329
198	66
199	29
200	12
204	4
205	4
206	4
207	8
208	37
209	29
210	29
211	33
212	29
213	29
214	4
220	8
221	8
222	25
223	20
224	50
225	16
226	8
227	370
228	162
229	20
230	4
234	4
235	8
236	12
237	8
238	37
239	16
240	4
241	8
248	4
249	4
250	37
251	12
252	25
253	16
254	62
255	45
256	12
264	4
265	8
266	20
267	41
268	58
269	25
270	4
279	8
280	20
281	37
282	20
291	4
293	8
294	4
295	37
296	4
307	8
308	25
309	112
310	25
311	4
321	4
322	4
323	54
324	12
334	4
335	8
336	70
337	20
350	20
351	41
352	416
353	91
354	8
