Mass Spectrum: 1-Pentene, 5-(pentyloxy)-
Formula: C10H20O
CAS: 56052-88-1
Molecular weight: 156
m/z	intensity
39	190
40	50
41	860
42	180
43	999
44	50
45	90
51	10
53	80
54	30
55	240
56	30
57	150
58	20
59	30
66	10
67	310
68	840
69	650
70	390
71	490
72	20
81	80
85	40
86	30
87	40
99	380
100	20
114	50
127	10
155	0
156	1
