Mass Spectrum: Benzene, 1-(2-chloroethyl)-2-(phenylmethoxy)-
Formula: C15H15ClO
CAS: 56052-45-0
Molecular weight: 246
m/z	intensity
41	29
50	49
51	99
52	29
62	39
63	108
64	29
65	158
77	49
89	89
90	79
91	999
92	118
93	9
118	138
119	49
120	118
164	13
178	9
182	72
183	13
209	16
210	36
246	16
