Mass Spectrum: Heptanamide, N-phenyl-
Formula: C13H19NO
CAS: 56051-98-0
Molecular weight: 205
m/z	intensity
26	0
27	60
28	7
29	64
30	0
37	1
38	4
39	53
41	80
43	207
44	6
50	6
51	27
52	6
53	8
54	4
55	32
56	3
57	18
59	0
62	2
63	10
64	11
65	66
66	46
67	6
68	2
69	8
70	1
76	3
77	77
78	7
79	3
83	1
84	1
85	24
86	1
89	1
90	1
91	17
92	64
93	999
94	109
95	7
104	1
105	1
106	11
107	1
112	1
113	11
117	1
118	2
119	6
120	28
121	2
130	1
132	2
133	1
134	12
135	97
136	10
148	8
149	1
162	2
176	1
204	3
205	61
206	10
