Mass Spectrum: Bis(Methylseleno)methane
Formula: C3H8Se2
CAS: 56051-03-7
Molecular weight: 204
m/z	intensity
26	4
27	207
28	10
29	21
30	6
31	1
35	6
36	3
37	2
38	1
39	2
40	0
41	12
42	1
43	2
44	1
45	3
47	16
48	6
49	5
50	2
51	1
54	0
55	2
56	1
57	3
67	1
69	1
70	0
71	1
73	2
75	1
76	6
77	10
78	21
79	32
80	56
81	83
82	24
83	177
84	6
85	56
86	1
87	11
88	4
89	63
90	86
91	211
92	104
93	401
94	176
95	155
96	41
97	18
98	2
99	1
100	3
101	6
102	7
103	26
104	9
105	211
106	158
107	515
108	19
109	999
110	30
111	170
112	4
117	17
118	1
119	18
120	3
121	8
122	2
123	11
124	2
125	1
136	1
138	2
147	0
152	0
153	1
154	4
155	3
156	11
157	7
158	20
159	3
160	22
161	2
162	7
163	0
164	1
165	0
166	3
167	4
168	12
169	14
170	28
171	28
172	44
173	31
174	39
175	29
176	12
177	8
178	1
179	1
180	0
181	2
182	5
183	12
184	15
185	30
186	33
187	55
188	37
189	56
190	38
191	14
192	10
193	1
194	3
195	2
196	19
197	22
198	99
199	63
200	276
201	135
202	430
203	39
204	496
205	17
206	142
207	4
208	11
209	0
