Mass Spectrum: 2-Hexene, 1-methoxy-, (E)-
Formula: C7H14O
CAS: 56052-83-6
Molecular weight: 114
m/z	intensity
26	10
27	100
28	40
29	70
31	10
39	100
40	10
41	380
42	20
43	20
45	200
50	10
51	10
52	10
53	60
54	40
55	170
56	10
58	130
59	10
67	70
71	999
72	50
81	10
82	100
83	10
85	130
114	20
