Mass Spectrum: Pregnan-18-oic acid, 20,20-[1,2-ethanediylbis(oxy)]-, methyl ester, (5.alpha.)-
Formula: C24H38O4
CAS: 56053-08-8
Molecular weight: 390
m/z	intensity
65	15
66	8
67	120
68	20
69	31
71	35
73	20
75	8
77	35
78	11
79	80
80	28
81	71
82	8
83	15
84	4
85	22
86	15
87	999
88	140
89	20
91	75
92	20
93	48
94	11
95	48
96	11
97	11
98	11
99	77
100	6
103	82
104	8
105	42
106	11
107	26
108	8
109	40
110	6
111	6
112	4
113	8
115	22
116	6
117	24
118	6
119	33
120	11
122	6
123	9
124	3
125	6
126	2
127	3
128	11
129	11
130	5
131	19
132	6
133	37
134	11
135	17
136	4
137	7
138	4
139	3
140	1
141	3
142	3
143	7
144	3
145	17
146	4
147	23
148	5
149	14
150	4
151	5
152	5
153	2
154	2
155	3
156	1
157	7
158	3
159	17
160	3
161	9
162	3
163	5
164	2
165	3
166	1
167	2
169	2
170	1
171	4
173	7
174	0
175	5
176	1
177	5
178	2
179	2
180	3
181	1
183	2
185	3
186	2
187	6
188	2
189	4
190	1
191	4
192	1
193	11
194	2
195	1
197	2
199	2
201	3
203	3
205	2
207	5
209	2
211	1
213	1
215	2
217	1
219	2
221	2
223	1
227	1
229	4
230	1
231	1
241	1
242	0
243	11
244	5
245	2
247	0
251	1
252	0
253	3
261	1
265	2
266	0
267	3
268	1
269	5
270	1
271	2
272	1
279	1
280	0
285	2
286	3
287	8
288	2
289	0
291	0
299	0
300	1
301	6
302	2
303	0
304	0
305	0
307	0
313	1
314	2
315	14
316	3
317	1
328	1
329	1
330	0
331	4
332	1
343	0
344	0
345	0
346	0
347	0
358	0
359	0
360	0
375	74
376	19
377	3
390	0
391	0
