Mass Spectrum: Pentanoic acid, 3-methyl-3,5-bis[(trimethylsilyl)oxy]-, methyl ester
Formula: C13H30O4Si2
CAS: 56051-93-5
Molecular weight: 306
m/z	intensity
40	27
41	42
42	11
43	132
44	35
45	140
46	11
47	46
51	7
52	11
53	15
55	58
56	7
57	15
58	31
59	152
60	15
61	46
66	7
67	31
68	7
69	23
70	7
71	23
72	42
73	999
74	93
75	328
76	23
77	19
79	11
82	7
83	19
85	296
86	15
87	15
88	11
89	242
90	19
91	27
95	58
96	7
97	23
99	15
101	39
102	7
103	378
104	35
105	246
106	23
107	39
111	7
113	35
114	7
115	101
116	15
117	31
118	7
119	27
123	7
124	7
125	7
126	7
127	113
128	11
129	35
130	7
131	58
132	7
133	101
134	15
135	11
141	11
143	363
144	46
145	54
146	15
147	464
148	70
149	93
150	11
151	7
156	101
157	132
158	23
159	27
161	7
163	70
164	11
165	7
169	7
173	101
174	15
175	11
177	46
178	7
179	7
185	125
186	23
187	15
189	780
190	113
191	39
201	78
202	11
203	7
207	15
216	58
217	101
218	19
219	11
231	11
233	117
234	27
235	11
245	19
259	74
260	19
261	19
263	19
275	11
291	105
292	27
293	11
