Mass Spectrum: Benzenepropanol, .alpha.,.alpha.-dimethyl-2-(phenylmethoxy)-
Formula: C18H22O2
CAS: 56052-47-2
Molecular weight: 270
m/z	intensity
41	30
43	50
51	20
59	50
63	10
65	80
69	20
77	30
78	10
91	999
92	90
107	200
108	20
119	30
120	10
121	20
133	30
145	10
147	130
148	10
161	50
162	330
163	30
177	10
197	20
252	10
270	60
271	10
