Mass Spectrum: Cholestan-24-one, 3,12-dihydroxy-, (3.alpha.,5.beta.,12.alpha.)-
Formula: C27H46O3
CAS: 56052-68-7
Molecular weight: 418
m/z	intensity
41	430
42	40
43	999
44	30
53	80
54	20
55	580
56	40
57	100
59	30
65	20
67	340
68	70
69	260
70	20
71	570
72	30
73	30
77	90
79	290
80	60
81	590
82	90
83	120
84	70
85	40
86	60
91	250
92	60
93	420
94	110
95	410
96	60
97	70
99	80
105	310
106	90
107	410
108	110
109	260
110	30
111	40
117	50
118	40
119	220
120	100
121	270
122	80
123	90
124	20
125	40
126	70
127	290
128	30
129	30
131	120
132	50
133	190
134	230
135	200
136	30
137	40
143	30
144	20
145	160
146	50
147	270
148	60
149	120
150	20
151	20
152	30
157	50
158	20
159	140
160	40
161	170
162	40
163	60
166	150
167	20
171	50
173	100
174	30
175	60
177	20
185	30
187	70
189	60
197	20
199	50
201	80
202	20
203	70
213	90
214	30
215	100
216	20
217	20
227	40
228	40
229	60
230	10
231	100
232	30
241	20
242	20
246	30
249	60
253	40
254	30
255	690
256	150
257	20
271	70
272	120
273	650
274	140
275	30
281	20
283	100
284	30
289	20
296	60
297	220
298	40
299	30
300	30
301	60
302	20
313	20
314	190
315	80
332	20
339	60
357	80
367	30
382	120
383	40
400	140
401	40
418	80
419	30
