Mass Spectrum: 2-Butanone, 4-(2,6,6-trimethyl-2-cyclohexen-1-ylidene)-
Formula: C13H20O
CAS: 56052-61-0
Molecular weight: 192
m/z	intensity
41	420
42	20
43	999
44	50
45	20
50	20
51	80
52	40
53	140
54	20
55	260
56	20
57	70
63	40
64	20
65	110
66	30
67	110
68	10
69	350
70	20
71	40
72	10
77	240
78	60
79	240
80	40
81	140
82	20
83	20
91	400
92	60
93	490
94	70
95	140
96	20
103	30
104	20
105	220
106	110
107	460
108	80
109	90
110	40
115	60
116	20
117	70
118	40
119	210
120	40
121	450
122	80
123	60
128	20
129	20
131	70
132	20
133	110
134	250
135	120
136	80
137	30
138	10
142	20
144	10
145	20
147	50
148	10
149	420
150	50
157	30
159	100
160	20
161	20
162	30
163	20
167	20
174	30
175	140
176	20
177	750
178	90
190	80
191	10
192	250
193	30
