Mass Spectrum: Pregnane-18,20-diol, (5.alpha.)-
Formula: C21H36O2
CAS: 56053-10-2
Molecular weight: 320
m/z	intensity
60	120
61	40
64	40
65	110
66	70
67	999
68	230
69	640
70	160
71	430
72	30
73	100
74	30
75	20
77	270
78	80
79	650
80	280
81	950
82	170
83	430
84	180
85	220
86	30
87	50
91	470
92	120
93	460
94	310
95	670
96	140
97	230
98	90
99	70
100	20
101	20
103	30
104	30
105	280
106	100
107	310
108	340
109	620
110	110
111	110
112	40
113	40
115	40
116	20
117	80
118	30
119	190
120	90
121	310
122	140
123	160
124	40
125	50
126	20
127	30
128	20
129	50
130	20
131	60
132	20
133	190
134	80
135	340
136	60
137	90
138	40
139	30
140	40
141	30
143	20
145	60
146	20
147	200
148	430
149	480
150	110
151	60
152	20
153	16
154	10
155	16
156	3
157	10
158	6
159	40
160	20
161	203
162	180
163	146
164	30
165	16
166	10
167	10
168	6
169	10
170	6
171	10
172	6
173	30
174	16
175	186
176	43
177	20
178	6
179	6
180	3
181	3
182	3
183	10
185	13
186	3
187	20
188	36
189	63
190	30
191	13
192	3
193	3
199	3
201	40
202	20
203	26
204	3
213	3
215	26
216	20
217	20
218	6
219	6
229	23
230	13
231	6
233	3
236	3
239	3
241	3
242	3
243	326
244	83
245	70
246	10
255	3
256	3
257	70
258	330
259	66
260	3
269	6
270	3
271	126
272	120
273	30
284	10
285	3
287	10
289	10
302	3
