Mass Spectrum: Pentane, 1-(1-butenyloxy)-, (Z)-
Formula: C9H18O
CAS: 56052-76-7
Molecular weight: 142
m/z	intensity
39	110
40	20
41	260
42	120
43	900
44	40
53	40
54	50
55	230
56	20
57	770
58	30
69	20
70	90
71	100
72	999
73	50
85	50
99	30
142	260
143	30
