Mass Spectrum: 8-Azabicyclo[3.2.1]octan-3-ol, 6-methoxy-8-methyl-, acetate (ester), (3-endo,6-exo)-
Formula: C11H19NO3
CAS: 56051-38-8
Molecular weight: 213
m/z	intensity
41	130
42	357
43	273
44	35
45	65
51	14
52	17
53	35
54	23
55	35
56	50
57	29
58	23
79	8
80	8
81	41
82	107
83	26
84	136
85	17
86	17
92	11
93	17
94	999
95	651
96	125
97	6
122	53
154	50
155	80
156	6
170	6
213	77
214	17
