Mass Spectrum: Androstane, 17,18-diiodo-, (5.alpha.,17.beta.)-
Formula: C19H30I2
CAS: 56053-11-3
Molecular weight: 512
m/z	intensity
65	157
66	78
67	815
68	263
69	315
70	78
71	52
77	342
78	157
79	684
80	263
81	842
82	236
83	368
84	78
85	52
91	710
92	447
93	605
94	368
95	999
96	263
97	210
98	52
101	26
102	17
103	52
104	166
105	350
106	254
107	500
108	324
109	868
110	228
111	149
112	61
113	52
114	17
115	105
116	52
117	157
118	78
119	228
120	149
121	377
122	184
123	298
124	324
125	210
126	140
127	131
128	228
129	105
130	70
131	193
132	78
133	245
134	149
135	386
136	122
137	140
138	70
139	35
141	35
142	52
143	43
144	61
145	140
146	219
147	342
148	368
149	701
150	166
151	105
152	35
153	26
155	8
157	26
158	26
159	70
160	96
161	166
162	140
163	201
164	70
165	96
166	35
167	26
169	17
171	26
172	17
173	52
174	43
175	87
176	52
177	61
178	35
179	26
180	17
181	17
185	17
186	17
187	122
188	131
189	184
190	61
191	87
192	35
193	17
199	26
200	17
201	70
202	122
203	298
204	877
205	701
206	201
207	43
215	61
216	35
217	43
218	43
219	87
220	35
221	52
228	8
229	35
230	166
231	114
232	52
233	219
234	114
235	26
239	26
241	105
242	43
243	298
244	70
245	8
247	35
248	52
249	17
254	105
255	26
256	526
257	184
258	184
259	114
260	43
261	245
262	61
263	26
272	114
273	96
274	26
275	131
276	675
277	219
278	26
289	70
290	8
301	8
303	17
329	8
369	8
376	8
383	8
385	210
387	43
388	8
