Mass Spectrum: Oxirane, 2-butyl-3-methyl-, cis-
Formula: C7H14O
CAS: 56052-93-8
Molecular weight: 114
m/z	intensity
41	792
42	865
43	999
44	365
45	890
46	24
47	6
50	18
51	36
52	12
53	73
54	42
55	609
56	73
57	561
58	201
59	48
62	6
63	6
65	12
66	6
67	42
68	48
69	48
70	79
71	365
72	115
73	6
77	6
79	12
81	48
82	6
83	6
85	420
86	30
96	18
97	12
98	12
99	67
100	6
114	12
115	6
