Mass Spectrum: Benzenepropanoic acid, 2-(phenylmethoxy)-, methyl ester
Formula: C17H18O3
CAS: 56052-50-7
Molecular weight: 270
m/z	intensity
41	60
42	30
43	60
44	60
45	10
50	70
51	110
52	50
53	20
55	40
57	30
62	30
63	80
64	30
65	130
66	10
71	10
74	10
75	10
76	10
77	100
78	80
79	10
89	60
90	50
91	999
92	150
103	20
105	80
106	60
107	40
118	50
119	50
120	140
121	40
146	20
147	10
148	110
149	10
165	30
167	40
178	10
179	60
180	30
182	60
183	10
195	10
209	20
238	30
270	50
