Mass Spectrum: 1-(p-Toluenesulfonyl)-5-fluorouracil
Formula: C11H9FN2O4S
CAS: 56059-10-0
Molecular weight: 284
m/z	intensity
39	99
41	58
50	33
51	58
58	66
63	83
64	33
65	298
77	46
87	29
89	99
90	66
91	999
92	18
107	50
108	25
130	33
139	50
148	33
155	926
156	140
157	99
176	25
177	25
220	264
221	58
284	99
285	25
