Mass Spectrum: Oxirane, 2-ethyl-3-propyl-, cis-
Formula: C7H14O
CAS: 56052-94-9
Molecular weight: 114
m/z	intensity
42	230
43	750
44	130
45	50
50	30
51	40
52	20
53	80
54	70
55	480
56	230
57	999
58	280
59	370
60	20
65	10
67	100
68	10
69	40
70	10
71	120
72	600
73	60
77	10
79	20
81	80
83	10
85	340
86	30
96	30
97	10
98	10
99	70
114	20
