Mass Spectrum: Curan, 16,17-didehydro-, (20.xi.)-
Formula: C19H24N2
CAS: 56053-18-0
Molecular weight: 280
m/z	intensity
41	700
42	300
43	710
44	260
45	40
50	50
51	100
52	50
53	170
54	140
55	999
56	290
57	420
58	70
59	10
60	50
61	10
62	20
63	60
64	30
65	70
66	30
67	180
68	180
69	380
70	170
71	230
72	20
73	70
74	20
75	40
76	40
77	180
78	50
79	70
80	60
81	190
82	230
83	240
84	170
85	140
86	20
87	20
88	10
89	60
90	50
91	100
92	30
93	60
94	80
95	170
96	160
97	200
98	110
99	60
100	10
101	30
102	50
103	70
104	30
105	50
106	30
107	40
108	70
109	100
110	300
111	140
112	60
113	50
114	20
115	200
116	70
117	130
118	50
119	40
120	20
121	20
122	50
123	110
124	230
125	110
126	50
127	80
128	100
129	90
130	350
131	100
132	50
133	20
134	20
135	40
136	40
137	60
138	60
139	60
140	70
141	70
142	80
143	290
144	510
145	80
146	20
147	20
148	20
149	80
150	260
151	70
152	70
153	50
154	150
155	90
156	170
157	190
158	120
159	30
160	10
161	10
163	20
164	20
165	50
166	90
167	340
168	350
169	320
170	230
171	130
172	50
173	20
174	10
175	10
176	10
177	30
178	40
179	60
180	260
181	260
182	490
183	230
184	140
185	60
186	20
187	10
188	20
189	10
190	10
191	50
192	50
193	80
194	280
195	200
196	400
197	380
198	150
199	80
200	70
201	20
202	10
203	10
204	20
205	30
206	40
207	180
208	140
209	150
210	120
211	100
212	70
213	30
214	20
215	10
217	10
218	20
219	30
220	20
221	50
222	40
223	120
224	80
225	260
226	80
227	40
228	20
233	10
234	10
235	20
236	30
237	100
238	50
239	90
240	30
241	10
243	220
244	40
245	10
247	10
248	10
249	20
250	20
251	90
252	170
253	80
254	20
255	10
256	20
257	10
261	10
262	10
263	20
264	10
265	120
266	40
267	40
268	10
269	20
276	30
277	30
278	80
279	130
280	780
281	240
282	120
283	40
