Mass Spectrum: Pentanedioic acid, 2,2-dimethyl-, dibutyl ester
Formula: C15H28O4
CAS: 56051-61-7
Molecular weight: 272
m/z	intensity
40	5
41	177
42	25
43	86
44	6
45	2
55	88
56	106
57	130
59	5
60	5
67	2
68	4
69	167
70	69
71	11
73	96
83	5
88	91
96	7
97	337
98	28
99	1
101	18
114	51
115	999
116	97
127	5
143	288
144	195
145	14
157	32
170	60
171	200
172	21
199	758
200	109
201	1
