Mass Spectrum: 2-Thiophenecarboxylic acid, butyl ester
Formula: C9H12O2S
CAS: 56053-84-0
Molecular weight: 184
m/z	intensity
26	36
27	158
28	9
29	196
30	8
31	6
36	6
37	22
38	65
39	441
40	21
41	149
42	17
43	21
44	28
45	82
49	8
50	28
51	19
52	6
53	39
55	45
56	135
57	147
58	29
59	3
66	3
69	18
71	6
77	6
81	29
82	45
83	105
84	39
85	45
95	3
97	3
98	3
100	6
110	8
111	999
112	85
113	56
127	6
128	491
129	162
130	38
131	8
141	6
151	3
155	3
184	68
185	6
186	1
