Mass Spectrum: Curan-17-ol, 1-acetyl-, acetate (ester), (16.alpha.)-
Formula: C23H30N2O3
CAS: 56053-24-8
Molecular weight: 382
m/z	intensity
41	10
42	150
43	170
44	999
45	70
46	20
51	10
53	30
54	30
55	80
56	80
57	10
58	30
65	10
67	60
68	40
69	50
70	40
77	30
78	10
79	20
80	20
81	20
82	20
83	10
84	10
91	10
93	20
94	50
95	50
96	10
102	10
103	10
106	10
108	10
110	40
115	50
116	10
117	20
118	10
121	10
122	20
123	10
124	40
128	10
129	20
130	110
131	20
136	10
140	10
141	10
142	10
143	130
144	500
145	60
150	110
151	30
152	10
154	30
155	10
156	40
157	10
158	10
161	10
167	30
168	60
169	20
170	40
172	10
180	40
181	20
182	20
185	10
186	50
193	10
194	20
195	10
196	10
197	10
208	20
210	460
211	70
223	10
241	150
242	20
279	20
282	10
321	10
322	30
323	750
324	190
325	30
326	10
340	10
381	10
382	140
383	40
