Mass Spectrum: Glutaconaldehyde dianilide
Formula: C17H16N2
CAS: 5608-83-3
Molecular weight: 248
m/z	intensity
41	46
42	12
43	9
44	6
45	5
46	28
49	5
50	37
51	55
52	49
53	16
54	36
55	3
57	2
60	2
61	14
62	21
63	45
64	23
65	149
66	282
67	36
68	2
69	7
73	3
74	10
75	10
76	12
77	79
78	33
79	4
80	6
81	1
89	2
90	2
91	12
92	98
93	999
94	70
95	2
100	2
103	2
104	14
115	8
116	1
117	7
124	4
127	5
128	8
129	2
130	7
131	4
143	6
144	12
145	1
154	9
156	347
157	44
158	1
169	6
219	6
247	1
248	7
249	1
