Mass Spectrum: 2-Buten-1-one, 1-(6,7,7-trimethyl-2,3-dioxabicyclo[2.2.2]oct-5-en-1-yl)-, [1R-[1.alpha.(E),4.beta.]]-
Formula: C13H18O3
CAS: 56083-37-5
Molecular weight: 222
m/z	intensity
29	80
43	499
55	100
69	999
83	70
98	140
109	60
125	130
207	1
222	1
