Mass Spectrum: Prost-13-en-1-oic acid, 9-(methoxyimino)-11,15-bis[(trimethylsilyl)oxy]-, trimethylsilyl ester, (8.beta.,9E,11.alpha.,13E,15S)-
Formula: C30H61NO5Si3
CAS: 56085-38-2
Molecular weight: 599
m/z	intensity
43	20
47	70
55	20
57	30
67	20
69	20
71	30
73	270
74	30
75	999
76	70
77	100
79	20
81	30
83	30
89	30
91	30
93	170
94	20
95	60
97	20
99	40
103	30
105	20
107	20
108	20
109	20
117	40
119	20
121	30
123	20
129	70
130	550
131	100
132	40
133	480
134	60
135	50
136	20
142	50
143	180
144	50
145	50
147	70
148	20
149	40
150	40
151	20
155	40
156	20
157	50
159	20
161	20
163	30
169	30
171	70
173	150
174	30
175	80
186	110
187	70
194	20
197	40
199	160
200	40
201	20
204	90
205	20
207	20
212	20
217	80
218	20
225	370
226	90
227	20
229	20
230	20
239	30
243	20
246	40
247	30
249	30
253	20
265	20
279	20
308	30
309	30
313	110
314	30
319	80
320	20
321	30
327	150
328	50
329	20
336	160
337	50
355	930
356	280
357	120
358	30
365	30
366	50
367	20
368	80
369	30
370	20
372	20
375	20
380	20
381	250
382	80
383	70
384	20
388	20
390	60
391	20
409	220
410	80
411	50
426	840
427	300
428	110
429	20
439	20
462	30
465	80
466	30
478	80
479	30
480	120
481	40
499	60
500	20
528	30
568	60
569	30
584	70
585	30
599	10
