Mass Spectrum: Piperidine, 4,4-dimethoxy-
Formula: C7H15NO2
CAS: 5608-82-2
Molecular weight: 145
m/z	intensity
39	46
40	15
41	79
42	828
43	281
44	24
45	42
50	11
51	17
52	14
53	80
54	41
55	133
56	604
57	450
58	58
59	29
65	3
66	3
67	19
68	44
69	30
70	31
71	31
72	17
73	21
74	11
75	4
78	4
80	64
82	999
83	129
84	33
85	455
86	50
88	56
89	614
90	27
91	5
93	1
95	5
96	10
98	670
99	43
100	23
101	64
102	5
106	2
110	5
112	141
113	541
114	462
115	37
116	4
130	40
131	4
144	14
145	38
146	4
