Mass Spectrum: D-Glucitol, 4-O-methyl-, pentaacetate
Formula: C17H26O11
CAS: 56083-46-6
Molecular weight: 406
m/z	intensity
27	11
28	5
29	19
30	0
31	7
33	7
39	10
40	2
41	61
42	19
43	999
44	26
45	20
50	2
51	2
53	9
54	6
55	74
56	21
57	103
58	10
59	23
60	5
61	9
65	3
66	1
67	28
68	14
69	76
70	29
71	105
72	9
73	25
74	52
75	17
76	3
77	6
78	1
79	8
80	5
81	35
82	17
83	50
84	15
85	185
86	20
87	374
88	19
89	8
90	1
91	6
92	1
93	9
94	5
95	28
96	14
97	55
98	17
99	150
100	64
101	23
102	5
103	38
104	7
105	10
106	3
107	7
108	2
109	23
110	13
111	55
112	15
113	26
114	3
115	47
116	18
117	30
118	3
119	10
120	3
121	6
122	2
123	10
124	18
125	33
126	10
127	229
128	22
129	976
130	60
131	12
132	2
133	6
134	3
135	10
136	2
137	9
138	4
139	22
140	7
141	26
142	34
143	13
144	1
145	30
146	2
147	6
148	1
149	22
150	2
151	6
152	3
153	15
154	5
155	14
156	3
157	14
158	3
159	53
160	7
161	3
162	0
163	5
164	1
165	5
166	3
167	7
168	2
169	5
170	8
171	9
172	1
173	2
174	1
175	6
176	1
177	2
178	1
179	4
180	2
181	4
182	3
183	5
184	11
185	7
187	31
188	3
189	339
190	6
191	33
192	1
193	3
194	2
195	3
196	2
197	3
198	1
199	1
200	1
201	47
203	4
204	1
205	2
206	1
207	1
208	1
209	1
210	1
211	2
212	1
213	2
214	1
215	0
217	8
218	1
219	2
220	1
221	2
222	1
223	2
224	1
225	2
226	1
227	1
229	1
230	2
231	18
232	2
233	1
234	1
235	1
236	1
237	1
238	1
239	2
240	2
241	0
243	0
244	3
245	3
246	0
248	0
249	1
250	1
251	0
252	1
253	1
259	4
260	3
261	128
262	16
263	3
264	1
265	1
266	1
268	1
270	1
272	1
273	3
274	1
275	0
276	1
277	1
278	1
279	1
280	1
281	1
282	1
286	2
287	3
288	1
289	1
290	1
291	1
292	1
293	1
294	1
295	1
296	1
300	0
303	1
304	1
305	1
306	0
308	2
309	1
310	1
315	0
316	1
317	0
320	2
321	1
322	1
323	1
324	0
329	0
330	0
347	32
348	6
349	1
350	2
370	1
372	1
407	1
