Mass Spectrum: 1,3,3-Trimethyl-2-oxabicyclo[2.2.2]octane-6,7-endo,endo-diol
Formula: C10H18O3
CAS: 56084-15-2
Molecular weight: 186
m/z	intensity
26	3
27	72
28	9
29	82
30	4
31	33
38	3
39	80
40	16
41	313
42	29
43	519
44	33
45	40
46	4
47	6
48	2
50	3
51	10
52	5
53	55
54	11
55	138
56	35
57	65
58	13
59	38
60	4
61	3
63	2
65	14
66	8
67	46
68	14
69	921
70	91
71	102
72	32
73	10
74	620
75	62
76	6
77	19
78	4
79	37
80	13
81	668
82	151
83	56
84	19
85	10
86	5
87	159
88	29
89	3
91	16
92	6
93	17
94	6
95	37
96	15
97	50
98	31
99	110
100	63
101	9
105	5
107	30
108	11
109	999
110	92
111	27
112	7
113	6
117	4
121	4
122	6
123	14
124	404
125	78
126	12
127	8
128	2
135	7
140	118
141	13
142	131
143	36
144	6
145	2
149	4
150	8
151	27
152	4
153	10
156	4
167	3
168	22
169	54
170	8
171	6
186	441
187	110
188	15
