Mass Spectrum: Methane, [(1-ethynylcyclohexyl)oxy]methoxy-
Formula: C10H16O2
CAS: 5609-21-2
Molecular weight: 168
m/z	intensity
27	33
28	3
29	29
30	3
31	8
33	3
37	1
38	4
39	65
40	11
41	57
42	12
43	9
44	4
45	999
46	24
47	4
50	11
51	31
52	18
53	41
54	14
55	44
56	7
57	5
58	23
59	6
60	1
61	6
62	3
63	10
64	3
65	36
66	19
67	81
68	40
69	50
70	6
71	31
72	4
74	2
75	2
76	2
77	37
78	24
79	161
80	49
81	25
82	18
83	8
84	8
85	7
86	2
87	2
89	1
90	2
91	69
92	17
93	92
94	20
95	44
96	8
97	21
98	10
99	3
100	38
101	7
102	1
104	2
105	19
106	13
107	96
108	26
109	26
110	17
111	27
112	11
113	7
114	3
115	1
117	3
118	1
119	2
121	12
122	3
123	52
124	5
125	31
126	4
127	1
128	2
135	9
136	8
137	11
138	7
139	9
140	4
141	2
152	3
153	63
154	7
167	1
168	21
169	2
