Mass Spectrum: Benzene, 1,3-dipropoxy-
Formula: C12H18O2
CAS: 56106-37-7
Molecular weight: 194
m/z	intensity
14	1
15	4
17	1
18	3
26	4
27	84
28	4
29	6
31	2
37	1
38	9
39	48
40	9
41	107
42	11
43	145
44	5
50	7
51	9
52	7
53	15
54	4
55	9
57	2
62	3
63	18
64	24
65	37
66	4
67	6
68	7
69	12
71	2
74	1
75	2
76	7
77	9
78	3
79	7
80	2
81	42
82	49
83	5
84	1
89	1
91	7
92	11
93	16
94	14
95	9
96	1
103	1
105	3
106	1
107	8
108	6
109	5
110	999
111	131
112	10
113	1
115	1
119	1
121	3
122	3
123	93
124	13
125	2
133	2
135	11
136	2
137	6
138	1
147	2
148	2
149	2
150	4
151	12
152	121
153	12
154	1
163	1
165	50
166	6
167	1
179	1
192	1
193	3
194	220
195	28
196	3
