Mass Spectrum: 8-Decenoic acid, 5-ethenyl-3,5,9-trimethyl-, methyl ester
Formula: C16H28O2
CAS: 56114-53-5
Molecular weight: 252
m/z	intensity
15	67
17	14
18	8
19	7
26	7
27	82
28	55
29	111
31	11
32	17
39	147
40	26
41	670
42	80
43	130
44	4
45	8
47	1
49	13
50	20
51	23
52	14
53	138
54	30
55	720
56	57
57	29
59	204
60	11
61	1
63	10
65	32
66	22
67	273
68	138
69	982
70	92
71	14
72	1
73	94
74	52
75	10
77	44
78	14
79	85
80	25
81	441
82	747
83	555
84	55
85	41
86	4
87	10
89	5
91	47
92	13
93	104
94	32
95	694
96	320
97	102
98	8
99	22
100	1
101	61
102	8
105	14
106	11
107	116
108	158
109	999
110	157
111	54
114	8
115	63
116	7
117	1
119	14
121	55
122	45
123	123
124	10
125	33
126	1
127	32
129	5
133	13
134	11
135	172
136	39
137	335
138	110
139	33
140	1
141	42
142	1
143	48
144	7
146	7
147	13
149	64
150	14
151	60
152	22
153	25
154	8
157	7
158	7
159	61
160	16
161	13
162	1
163	52
164	11
165	10
166	4
168	27
169	42
170	30
175	1
176	11
177	189
178	61
179	13
180	7
181	2
182	1
183	35
184	10
187	8
189	7
191	1
192	1
193	2
194	4
195	5
196	10
197	4
203	42
204	10
205	16
206	7
207	1
208	4
209	317
210	33
211	2
219	10
220	17
221	32
224	1
225	1
226	1
237	17
238	4
239	2
240	2
241	4
242	1
250	4
252	41
253	4
254	2
