Mass Spectrum: [2,2'-Binaphthalene]-1,1',4,4'-tetrone, 3-hydroxy-
Formula: C20H10O5
CAS: 56119-07-4
Molecular weight: 330
m/z	intensity
76	999
77	630
104	500
105	560
141	55
143	55
149	100
155	55
174	55
185	50
187	110
188	110
189	200
190	45
200	55
216	45
218	50
244	25
246	90
272	55
274	50
288	35
290	35
300	140
302	15
314	45
328	220
330	790
331	140
