Mass Spectrum: 2,7-Nonadienoic acid, 4,8-dimethyl-, methyl ester
Formula: C12H20O2
CAS: 56114-52-4
Molecular weight: 196
m/z	intensity
14	11
15	98
17	11
24	1
26	11
27	163
28	52
29	126
30	8
31	11
32	26
33	1
36	1
37	1
38	8
39	257
40	39
41	705
42	58
43	139
44	8
45	23
48	1
50	14
51	42
52	35
53	195
54	58
55	642
56	52
57	8
59	83
61	13
63	13
65	41
66	39
67	364
68	94
69	699
70	54
71	42
72	23
73	248
74	44
75	8
77	58
78	13
79	132
80	54
81	411
82	452
83	173
84	20
85	73
86	8
87	54
89	50
91	52
92	19
93	250
94	94
95	361
96	67
97	45
98	33
99	33
100	20
101	4
103	30
104	1
105	29
106	5
107	319
108	69
109	227
110	55
111	119
112	29
113	63
114	999
115	110
116	4
117	2
119	19
120	13
121	194
122	226
123	91
124	2
125	144
126	54
127	367
128	61
131	77
132	10
133	1
135	44
136	147
137	113
138	1
139	67
140	33
141	27
142	10
146	8
147	44
148	4
149	104
150	11
151	1
152	2
153	33
154	11
155	1
163	1
164	41
165	88
166	10
167	2
169	10
178	1
181	63
182	10
195	1
196	338
197	41
