Mass Spectrum: Curan-17-oic acid, 19-(acetyloxy)-2,16-didehydro-, methyl ester, (20.xi.)-
Formula: C22H26N2O4
CAS: 56114-74-0
Molecular weight: 382
m/z	intensity
41	133
42	183
43	999
44	500
45	308
46	8
47	8
49	33
50	58
51	66
52	41
53	41
54	41
55	125
56	91
57	125
58	116
59	58
60	175
61	8
62	8
63	25
64	16
65	66
66	16
67	41
68	41
69	58
70	58
71	83
72	16
73	25
74	25
75	16
76	25
77	58
78	33
79	50
80	25
81	25
82	50
83	41
84	50
85	50
86	16
87	8
88	8
89	16
90	8
91	25
92	191
93	41
94	141
95	33
96	25
97	50
98	191
99	41
101	16
102	16
103	16
104	33
105	33
106	108
107	200
108	33
109	8
110	16
111	25
112	8
113	25
114	16
115	66
116	25
117	33
118	8
119	16
120	25
121	225
122	33
123	16
124	16
125	25
126	25
127	41
128	58
129	41
130	41
131	41
132	8
133	16
135	16
136	8
138	33
139	50
140	50
141	41
142	33
143	50
144	50
145	50
146	16
147	16
148	16
149	25
150	16
151	41
152	50
153	41
154	100
155	66
156	150
157	125
158	66
159	25
160	16
161	25
163	25
164	25
165	58
166	100
167	233
168	108
169	75
170	41
171	41
172	16
177	16
178	41
179	58
180	250
181	150
182	133
183	66
184	41
185	25
186	16
190	16
191	41
192	50
193	166
194	175
195	66
196	33
197	50
198	16
199	25
200	16
201	25
202	16
204	33
205	41
206	75
207	116
208	141
209	91
210	50
211	25
212	25
213	25
214	75
215	41
216	50
217	25
218	25
219	33
220	66
221	100
222	75
223	66
224	33
225	191
226	133
227	150
228	41
231	16
232	16
233	41
234	50
235	66
236	50
237	33
238	50
239	33
240	50
241	33
247	25
248	16
249	25
250	16
251	16
252	66
253	41
254	50
255	50
261	16
262	16
263	50
264	41
265	41
266	50
267	66
268	125
269	41
270	16
279	33
280	16
281	41
282	33
283	850
284	208
285	41
289	16
291	58
292	16
295	58
296	66
297	25
307	33
308	25
309	33
310	25
321	25
322	83
323	150
324	91
325	33
339	41
351	33
381	41
382	225
383	75
