Mass Spectrum: 3-Pyridineacetaldehyde, [2-(3-pyridinyl)ethylidene]hydrazone
Formula: C14H14N4
CAS: 56114-45-5
Molecular weight: 238
m/z	intensity
78	999
79	132
91	190
92	404
93	170
94	76
104	132
105	189
106	76
107	66
118	147
119	189
120	264
121	123
133	75
134	95
135	943
136	110
160	226
161	37
182	38
196	75
197	20
223	480
224	85
237	85
238	453
