Mass Spectrum: Tris(trimethoxysilyl)methoxysilane
Formula: C10H30O10Si4
CAS: 56120-91-3
Molecular weight: 422
m/z	intensity
59	999
91	420
105	130
121	450
135	180
152	50
165	810
181	130
197	400
211	440
227	630
240	190
255	290
257	160
270	240
301	100
317	270
333	60
345	20
360	20
391	30
407	10
422	1
