Mass Spectrum: Thiophene, 2,3-bis(1,1-dimethylethoxy)-
Formula: C12H20O2S
CAS: 5612-70-4
Molecular weight: 228
m/z	intensity
40	142
41	999
42	142
43	200
44	142
45	128
50	85
51	85
52	85
53	85
55	285
56	342
57	971
58	228
59	185
60	42
87	71
88	71
116	857
117	142
118	42
172	114
