Mass Spectrum: 1(2H)-Pentalenone, 3,3a,4,6a-tetrahydro-
Formula: C8H10O
CAS: 56138-05-7
Molecular weight: 122
m/z	intensity
26	54
27	262
28	51
29	5
36	2
37	22
38	61
39	332
40	87
41	65
42	23
43	22
46	7
47	1
49	7
50	54
51	85
52	47
53	66
54	13
55	156
56	15
57	3
58	2
60	3
61	12
62	30
63	60
64	14
65	160
66	999
67	147
68	10
73	1
74	7
75	5
76	3
77	323
78	262
79	981
80	597
81	48
85	1
86	2
87	2
90	1
91	125
92	43
93	156
94	274
95	12
102	0
103	7
104	44
107	12
108	0
109	0
110	0
112	0
120	0
121	9
122	628
123	18
124	3
