Mass Spectrum: Ergost-4-ene-3,6-dione, 25-(acetyloxy)-
Formula: C30H46O4
CAS: 56143-32-9
Molecular weight: 470
m/z	intensity
41	620
42	40
43	190
44	10
53	110
54	30
55	800
56	60
57	100
65	40
66	60
67	240
68	190
69	550
70	999
71	120
73	60
77	100
78	20
79	240
80	230
81	350
82	210
83	340
84	200
85	50
91	150
92	30
93	160
94	50
95	280
96	130
97	130
98	20
105	120
106	30
107	130
108	50
109	200
110	30
111	20
117	30
118	10
119	60
120	20
121	70
122	20
123	100
124	20
125	20
126	10
129	20
131	30
132	20
133	90
134	30
135	60
136	160
137	480
138	60
143	20
145	30
146	10
147	50
148	20
149	40
150	10
151	20
152	60
153	10
157	10
159	30
160	20
161	50
162	10
163	30
166	10
171	20
173	20
174	10
175	50
176	30
177	30
185	10
187	20
188	40
189	70
190	30
191	20
197	10
199	10
201	20
202	10
203	20
204	10
213	10
215	30
216	20
217	20
225	10
227	10
229	40
230	10
231	10
239	10
241	10
242	10
243	120
244	30
245	50
246	10
255	10
256	10
257	150
258	80
259	90
260	30
267	10
269	20
270	100
271	40
272	20
282	30
283	210
284	140
285	100
286	40
287	10
295	10
297	50
298	20
299	20
311	190
312	150
313	110
314	40
325	10
326	130
327	130
328	60
329	20
340	20
341	300
342	100
395	30
396	20
410	220
411	70
412	20
424	40
425	10
