Mass Spectrum: Butanedioic acid, 2,3-dimethoxy-, dimethyl ester, [R-(R*,R*)]-
Formula: C8H14O6
CAS: 56145-21-2
Molecular weight: 206
m/z	intensity
27	100
29	680
30	110
31	460
33	450
41	60
42	140
43	130
44	160
45	860
47	180
58	60
59	500
60	70
69	80
71	90
72	100
73	680
74	240
75	680
77	170
85	210
88	130
89	180
90	490
91	70
101	50
103	999
104	580
105	130
117	130
118	80
119	500
133	160
147	80
