Mass Spectrum: N-Isopropyl-3-phenylpropanamide
Formula: C12H17NO
CAS: 56146-87-3
Molecular weight: 191
m/z	intensity
39	100
40	220
41	140
42	80
43	400
44	999
51	100
57	100
58	260
60	60
65	100
77	160
78	100
79	80
86	60
91	480
100	320
103	80
104	200
105	340
106	100
191	380
