Mass Spectrum: 9H-Purin-6-amine, N,9-bis(trimethylsilyl)-8-[(trimethylsilyl)oxy]-
Formula: C14H29N5OSi3
CAS: 56145-36-9
Molecular weight: 367
m/z	intensity
40	100
41	40
42	32
43	70
44	80
45	120
46	12
47	36
49	16
55	30
56	18
57	39
58	37
59	28
60	8
66	7
67	13
68	15
69	29
70	21
71	15
72	28
73	999
74	91
75	240
76	30
77	139
78	17
79	16
80	9
81	16
82	10
83	18
84	33
85	12
86	19
87	10
88	10
89	9
90	8
91	10
93	21
94	6
95	16
96	10
97	10
98	17
99	28
100	45
101	10
102	7
103	16
104	5
105	16
106	5
107	12
109	12
110	6
111	13
112	10
113	6
114	24
115	9
116	16
117	79
118	10
119	9
120	27
121	10
122	5
123	7
124	5
125	9
126	10
127	12
128	9
129	42
130	14
131	31
132	43
133	39
134	7
135	7
136	5
139	10
140	7
141	10
142	10
143	20
144	10
145	42
146	10
147	124
148	26
149	26
150	8
151	12
152	8
153	5
154	8
155	7
156	8
157	12
158	14
159	7
160	5
161	7
165	6
166	10
167	10
168	10
169	12
170	29
171	15
172	16
173	19
174	9
175	5
177	9
179	6
180	5
181	8
182	16
183	6
184	8
185	10
187	10
188	103
189	15
190	10
191	14
192	72
193	15
194	12
195	13
196	8
197	8
198	6
199	7
200	10
201	10
203	5
204	12
205	18
206	6
207	48
208	10
209	10
210	7
211	10
213	5
214	6
217	10
218	5
219	6
221	52
223	16
224	5
225	8
226	8
229	5
230	8
231	6
233	5
234	7
236	6
237	10
242	21
243	12
244	7
245	5
247	18
248	5
249	9
250	6
251	5
252	7
253	8
257	23
258	7
259	10
260	7
264	21
265	14
266	8
267	5
268	10
269	10
273	5
275	9
277	7
278	7
279	7
280	43
281	32
282	10
283	9
285	10
289	5
290	5
294	16
295	31
296	82
313	76
314	30
315	7
328	25
336	23
352	480
353	164
354	90
355	38
356	14
366	28
367	321
368	102
369	42
370	16
