Mass Spectrum: Pregnan-18-oic acid, 20-hydroxy-, (5.alpha.)-
Formula: C21H34O3
CAS: 56143-33-0
Molecular weight: 334
m/z	intensity
60	488
61	147
62	15
63	15
64	7
65	62
66	38
67	395
68	209
69	999
70	255
71	558
72	54
73	449
74	54
75	23
76	15
77	131
78	54
79	255
80	100
81	550
82	209
83	782
84	209
85	558
86	38
87	131
88	15
89	15
91	209
92	54
93	224
94	85
95	356
96	147
97	341
98	131
99	155
100	46
101	62
102	23
103	15
104	15
105	170
106	54
107	162
108	124
109	279
110	209
111	193
112	77
113	85
114	23
115	85
116	38
117	62
118	23
119	124
120	54
121	147
122	69
123	116
124	54
125	100
126	38
127	54
128	31
129	147
130	31
131	62
132	23
133	116
134	46
135	116
136	54
137	93
138	31
139	85
140	31
141	46
142	15
143	38
144	38
145	77
146	15
147	131
148	46
149	131
150	38
151	54
152	31
153	23
154	15
155	23
156	15
157	46
158	15
159	54
160	31
161	170
162	100
163	170
164	38
165	31
166	23
167	15
168	15
169	15
170	7
171	38
172	7
173	46
174	23
175	85
176	31
177	46
178	15
179	23
180	15
181	7
182	15
183	15
185	46
186	85
187	85
188	23
189	54
190	15
191	62
192	15
193	15
194	7
195	7
196	7
197	7
199	15
200	7
201	23
202	15
203	23
204	38
205	31
206	131
207	170
208	23
209	7
211	7
213	38
214	7
215	100
216	38
217	23
218	15
219	23
220	54
221	31
222	7
227	7
229	23
230	7
231	46
232	23
233	31
234	23
235	7
239	7
241	23
242	23
243	155
244	46
245	31
246	15
247	162
248	38
249	7
255	38
256	23
257	131
258	23
259	286
260	124
261	38
269	7
270	15
271	162
272	139
273	46
274	7
275	7
284	7
287	23
288	7
290	15
301	255
302	54
316	767
317	178
318	15
