Mass Spectrum: Ajmalan-17-ol, (2.alpha.,17R)-
Formula: C20H26N2O
CAS: 56142-96-2
Molecular weight: 310
m/z	intensity
41	421
42	271
43	999
44	728
45	135
50	28
51	57
52	28
53	82
54	92
55	214
56	257
57	221
58	57
61	82
63	35
64	21
65	50
66	28
67	64
68	57
69	71
70	114
71	64
72	14
73	28
75	21
76	28
77	125
78	32
79	46
80	53
81	92
82	67
83	64
84	57
85	35
88	28
89	35
90	28
91	64
92	42
93	50
94	50
95	35
96	42
97	46
98	42
99	28
100	21
101	28
102	42
103	50
104	28
105	28
106	46
107	21
108	46
109	28
110	60
111	35
112	35
113	21
114	17
115	103
116	35
117	46
118	35
119	17
120	10
122	25
123	25
124	53
125	25
127	35
128	64
129	50
130	67
131	135
132	25
136	82
137	35
138	50
139	21
140	42
141	28
142	42
143	78
144	728
145	167
146	46
149	78
150	21
152	35
153	64
154	50
155	64
156	89
157	589
158	189
159	28
165	21
166	871
167	192
168	78
169	35
170	64
171	42
172	28
173	21
180	28
181	46
182	92
183	82
184	46
185	32
186	21
193	28
194	28
195	28
196	32
197	32
210	28
211	46
212	114
213	42
224	28
229	21
236	57
237	28
238	46
239	28
253	96
254	28
265	25
267	28
279	53
281	107
282	28
309	82
310	964
311	292
312	28
