Mass Spectrum: Lanosta-7,9(11)-dien-18-oic acid, 22,25-epoxy-3,17,20-trihydroxy-, .gamma.-lactone, (3.beta.)-
Formula: C30H44O5
CAS: 56143-25-0
Molecular weight: 484
m/z	intensity
53	170
54	200
55	999
56	550
57	999
58	250
59	200
60	260
61	120
62	70
63	50
65	70
66	50
67	490
68	350
69	820
70	530
71	920
72	110
73	230
74	590
75	300
76	50
77	150
78	50
79	280
80	120
81	860
82	540
83	999
84	330
85	820
86	60
87	700
88	130
89	30
90	130
91	250
92	50
93	350
94	170
95	830
96	380
97	900
98	360
99	630
100	70
101	160
102	30
103	90
104	40
105	250
106	90
107	360
108	170
109	560
110	290
111	830
112	220
113	250
114	50
115	140
116	50
117	70
118	50
119	200
120	70
121	340
122	130
123	320
124	160
125	300
126	110
127	200
128	80
129	200
130	60
131	140
132	40
133	180
134	70
135	370
136	100
137	170
138	110
139	150
140	70
141	130
142	60
143	260
144	70
145	170
146	50
147	170
148	60
149	400
150	70
151	110
152	80
153	100
154	50
155	140
156	50
157	130
158	70
159	160
160	40
161	130
162	40
163	120
164	40
165	120
166	60
167	130
168	50
169	80
170	30
171	100
172	30
173	80
174	30
175	70
176	30
177	70
178	30
179	60
180	30
181	60
182	30
183	70
184	20
185	90
186	20
187	100
188	20
189	50
190	20
191	60
192	30
193	60
194	30
195	60
196	30
197	60
198	20
199	90
200	30
201	70
202	20
203	50
204	20
205	30
206	30
207	40
208	30
209	50
210	40
211	50
213	70
214	20
215	110
216	30
217	40
218	20
219	30
220	20
221	60
222	20
223	30
224	20
225	60
226	20
227	70
228	30
229	40
230	20
231	40
232	20
233	80
234	60
235	50
236	30
237	50
238	20
239	60
241	60
242	20
243	50
244	20
245	30
246	20
247	40
248	40
249	40
250	20
251	60
253	90
254	30
255	70
256	40
257	50
258	10
259	10
260	10
261	40
262	10
263	10
264	10
265	10
266	10
267	50
269	70
270	30
271	30
272	10
273	60
274	20
275	50
276	20
277	90
278	50
279	80
281	40
282	30
283	330
284	120
285	80
297	50
298	50
299	80
313	80
314	50
315	70
316	30
321	30
323	30
325	30
326	30
327	30
329	30
330	30
331	10
332	10
333	10
334	10
335	10
336	10
337	20
338	20
339	40
340	40
341	70
352	30
369	30
370	40
381	30
382	30
383	30
384	30
385	50
386	40
387	20
388	30
389	20
394	40
395	30
396	30
397	390
398	160
399	50
400	40
423	100
424	30
425	40
437	30
451	300
452	100
453	30
464	20
466	30
468	70
469	60
484	900
485	340
486	100
