Mass Spectrum: Gorgostane, (5.alpha.)-
Formula: C30H52
CAS: 56143-37-4
Molecular weight: 412
m/z	intensity
53	79
54	29
55	999
56	59
57	267
58	9
65	39
66	9
67	584
68	148
69	653
70	108
71	188
72	9
77	79
78	19
79	267
80	69
81	881
82	297
83	613
84	79
85	39
91	178
92	39
93	356
94	178
95	802
96	108
97	396
98	396
99	49
105	128
106	59
107	336
108	188
109	910
110	118
111	118
112	29
113	9
117	29
118	9
119	89
120	49
121	336
122	178
123	386
124	69
125	29
126	19
131	19
132	9
133	89
134	79
135	435
136	99
137	376
138	49
139	19
145	29
146	29
147	148
148	158
149	564
150	128
151	178
152	39
153	19
154	9
159	29
160	29
161	128
162	69
163	376
164	59
165	89
166	19
173	29
174	19
175	118
176	59
177	237
178	59
179	39
180	29
187	29
188	19
189	99
190	108
191	207
192	49
193	19
194	19
201	29
202	29
203	178
204	49
205	99
206	29
215	99
216	89
217	445
218	247
219	118
220	19
229	29
230	59
231	148
232	59
233	19
243	89
244	89
245	79
246	19
247	19
248	19
255	9
256	128
257	742
258	405
259	297
260	59
261	19
271	148
272	59
273	29
285	346
286	267
287	287
288	79
289	19
298	19
299	39
300	732
301	178
302	49
313	19
314	29
315	19
316	9
341	178
342	79
343	39
355	19
369	39
370	29
371	29
385	19
386	19
397	59
398	29
399	19
400	29
412	227
413	89
414	29
