Mass Spectrum: Ergostane-3,5,6,25-tetrol, (3.beta.,5.alpha.,6.beta.)-
Formula: C28H50O4
CAS: 56143-31-8
Molecular weight: 450
m/z	intensity
41	296
42	15
43	343
45	46
53	46
54	15
55	593
56	46
57	109
58	31
59	999
60	31
65	31
67	328
68	62
69	390
70	109
71	109
72	15
77	62
78	15
79	281
80	46
81	562
82	125
83	265
84	15
85	15
86	15
87	265
88	15
91	187
92	46
93	406
94	140
95	453
96	109
97	140
98	31
99	31
100	15
105	250
106	78
107	343
108	171
109	312
110	140
111	78
115	15
117	46
118	15
119	171
120	46
121	281
122	187
123	234
124	46
126	15
128	31
129	15
130	15
131	93
132	46
133	203
134	46
135	140
136	46
137	62
139	31
141	46
143	78
144	15
145	140
146	46
147	187
148	46
149	171
150	31
151	31
152	15
155	15
157	62
158	31
160	46
161	156
162	31
164	93
165	15
169	31
170	15
171	62
172	15
173	93
174	31
175	140
177	31
178	46
179	15
183	31
184	15
185	78
186	31
187	93
188	31
189	46
190	15
191	15
197	46
198	15
199	46
200	15
202	31
203	31
205	15
209	15
211	140
213	46
214	93
215	15
216	93
217	31
219	15
226	46
227	31
228	46
230	234
231	140
232	93
233	15
234	15
244	62
245	171
246	62
248	156
249	78
254	140
261	93
262	62
263	31
265	15
269	109
270	46
271	453
272	109
273	31
274	78
275	15
276	31
278	15
279	15
280	15
281	31
283	31
284	15
286	15
287	125
288	62
289	500
290	109
291	31
292	62
293	31
297	62
298	46
299	78
300	62
301	46
303	31
304	46
305	171
306	78
310	31
311	31
312	46
313	31
314	31
315	62
316	46
317	31
318	62
319	31
320	31
323	46
326	46
328	46
329	62
330	140
331	78
333	109
334	93
335	46
338	78
339	46
341	109
342	46
343	46
344	78
345	46
348	93
349	46
355	62
356	203
357	93
358	46
359	125
360	46
361	46
362	46
363	46
367	46
372	62
374	187
375	78
378	78
379	62
381	125
382	78
383	62
385	62
386	62
396	156
397	93
398	62
399	156
400	93
401	78
414	375
415	140
416	78
417	109
418	93
432	250
433	125
434	78
