Mass Spectrum: Proline, 2-methyl-5-oxo-, methyl ester
Formula: C7H11NO3
CAS: 56145-24-5
Molecular weight: 157
m/z	intensity
42	180
55	220
70	100
98	999
99	70
157	10
