Mass Spectrum: Ergostane-3,6-dione, 25-(acetyloxy)-5-hydroxy-, (5.alpha.)-
Formula: C30H48O5
CAS: 56143-30-7
Molecular weight: 488
m/z	intensity
41	690
42	100
43	800
44	30
45	700
46	20
51	10
52	10
53	120
54	30
55	970
56	120
57	190
60	720
61	30
65	40
66	70
67	280
68	310
69	750
70	999
71	160
72	10
73	20
77	110
78	30
79	250
80	230
81	450
82	380
83	620
84	360
85	50
91	170
92	30
93	190
94	80
95	420
96	260
97	210
98	50
99	10
101	10
103	10
104	10
105	140
106	40
107	180
108	80
109	320
110	70
111	50
112	10
115	20
116	10
117	30
118	10
119	90
120	30
121	120
122	40
123	220
124	50
125	20
126	20
127	10
128	10
129	20
130	10
131	40
132	20
133	120
134	50
135	100
136	220
137	740
138	100
139	20
141	10
143	10
144	10
145	40
146	20
147	90
148	40
149	80
150	20
151	30
152	120
153	20
155	10
157	30
158	10
159	50
160	30
161	70
162	40
163	60
164	10
165	10
167	10
171	30
172	10
173	40
174	30
175	90
176	70
177	60
178	10
183	20
185	20
187	40
188	60
189	100
190	40
191	40
197	10
199	30
201	40
202	10
203	20
211	10
213	30
214	20
215	50
216	30
217	40
225	10
227	30
228	20
229	70
230	30
231	40
239	20
241	30
242	30
243	190
244	60
245	90
246	30
255	20
256	20
257	260
258	140
259	170
260	70
261	20
267	30
268	20
269	40
270	180
271	60
272	40
273	20
282	70
283	390
284	250
285	180
286	80
287	30
295	30
296	70
297	50
298	40
299	20
309	20
310	20
311	300
312	280
313	180
314	70
315	30
324	20
325	30
326	240
327	240
328	110
329	40
330	20
339	20
340	20
341	330
342	110
343	40
344	20
367	20
368	20
381	50
382	30
383	20
384	20
395	50
396	100
397	40
398	20
408	20
410	310
411	100
412	50
413	20
423	20
438	20
470	20
