Mass Spectrum: Glycine, N-(3-furanylcarbonyl)-, methyl ester
Formula: C8H9NO4
CAS: 56145-22-3
Molecular weight: 183
m/z	intensity
29	60
38	50
39	200
95	999
96	80
124	280
183	150
