Mass Spectrum: 2-Pyrrolidinecarboxylic acid, 1,2-dimethyl-5-oxo-, methyl ester
Formula: C8H13NO3
CAS: 56145-23-4
Molecular weight: 171
m/z	intensity
27	90
29	60
31	50
41	80
42	90
55	200
56	200
84	100
112	999
113	70
