Mass Spectrum: 2-Aminosuccinonitrile
Formula: C4H5N3
CAS: 5615-94-1
Molecular weight: 95
m/z	intensity
25	5
26	28
27	180
28	301
29	13
34	4
37	3
38	35
39	43
40	122
41	328
42	53
43	5
50	5
51	26
52	33
53	49
54	7
55	999
56	30
63	2
65	3
66	27
67	183
68	286
69	24
76	3
77	6
78	2
79	4
94	3
