Mass Spectrum: 5-Norbornene-2,3-dicarboxylic acid, 2TMS derivative
Formula: C15H26O4Si2
CAS: 56151-04-3
Molecular weight: 326
m/z	intensity
55	30
59	30
61	20
65	60
66	460
67	30
72	40
73	999
74	90
75	210
83	10
91	80
92	30
99	20
115	50
118	40
119	170
120	30
133	20
147	240
148	40
149	30
171	250
172	30
193	40
208	40
209	200
210	40
236	120
237	20
245	230
246	50
261	60
311	10
326	7
