Mass Spectrum: 1-propene, 1,3-dichloro-2-trifluoromethyl-1,3,3-trifluoro-
Formula: C4Cl2F6
CAS: 56152-72-8
Molecular weight: 232
m/z	intensity
69	388
109	999
111	449
125	31
127	21
128	32
130	10
132	28
134	18
143	39
147	22
163	77
165	50
182	45
184	29
197	436
199	151
200	5
213	617
214	8
215	451
217	82
218	3
232	352
234	232
236	42
237	7
239	4
