Mass Spectrum: Norfluoxetine
Formula: C16H16F3NO
CAS: 56161-73-0
Molecular weight: 295
m/z	intensity
18	1
26	1
27	6
28	17
30	999
31	16
37	1
38	5
39	22
40	2
41	4
42	7
43	5
44	4
45	1
50	15
51	39
52	13
53	6
54	6
55	3
56	15
57	10
58	1
61	1
62	6
63	33
64	8
65	28
66	3
67	1
68	1
69	4
70	1
73	1
74	5
75	14
76	10
77	86
78	82
79	20
80	2
81	2
82	1
83	18
84	3
85	1
86	1
87	2
88	7
89	16
90	4
91	57
92	6
93	2
94	2
95	18
96	2
99	2
100	1
101	2
102	18
103	99
104	176
105	59
106	14
107	3
109	1
112	21
113	22
114	16
115	37
116	9
117	19
118	4
119	3
121	1
123	1
125	9
126	4
127	2
128	2
129	2
130	12
131	3
132	35
133	27
134	272
135	29
136	1
139	1
141	1
143	71
144	5
145	25
146	3
150	1
151	1
152	4
153	3
154	3
159	5
160	1
161	7
162	55
163	6
164	1
165	1
167	1
172	2
177	1
178	1
181	1
182	1
183	21
184	3
187	2
188	1
190	2
191	69
192	6
201	1
203	3
223	1
225	1
249	1
251	6
252	2
277	1
278	2
295	2
