Mass Spectrum: Methanesulfonic acid, trifluoro-, [(4-nitrophenyl)sulfonyl]methyl ester
Formula: C8H6F3NO7S2
CAS: 56177-36-7
Molecular weight: 349
m/z	intensity
36	140
43	170
44	330
48	210
50	190
64	600
69	999
75	190
76	240
92	100
99	650
106	77
122	220
163	200
170	170
186	340
255	93
285	89
319	220
320	20
349	59
