Mass Spectrum: 5.alpha.-Pregnan-20-one, 12.beta.-hydroxy-
Formula: C21H34O2
CAS: 5618-22-4
Molecular weight: 318
m/z	intensity
40	40
41	410
42	40
43	999
44	70
45	40
51	10
53	100
54	30
55	430
56	40
57	50
58	10
65	50
66	10
67	320
68	70
69	140
70	10
71	110
72	10
77	100
78	20
79	190
80	60
81	340
82	60
83	100
84	90
85	40
91	130
92	30
93	180
94	60
95	230
96	50
97	50
98	10
105	100
106	40
107	130
108	60
109	240
110	40
111	30
115	10
117	30
118	10
119	70
120	50
121	120
122	50
123	60
124	10
125	10
129	10
131	40
132	50
133	120
134	30
135	110
136	30
137	40
143	10
145	40
146	60
147	130
148	50
149	150
150	30
151	20
153	10
157	10
159	30
160	10
161	100
162	30
163	40
164	10
165	10
172	10
173	20
175	40
176	10
177	10
187	10
189	20
190	50
191	30
201	20
202	10
203	40
204	10
205	10
215	30
216	20
217	20
219	10
229	10
230	10
231	10
233	70
234	20
241	10
242	270
243	100
244	20
247	10
255	20
256	10
257	210
258	50
259	10
260	20
261	10
267	10
271	10
272	10
275	10
282	10
285	110
286	20
290	10
299	10
300	170
301	50
302	10
303	30
318	10
319	10
