Mass Spectrum: 1,4,7-Triazaheptane, 1,4,7-tris(p-toluenesulfonyl)-
Formula: C25H31N3O6S3
CAS: 56187-04-3
Molecular weight: 565
m/z	intensity
27	4
29	1
30	46
36	0
39	21
41	16
42	632
43	94
44	62
45	6
46	0
47	0
48	2
54	2
55	15
56	28
57	4
58	1
60	1
61	1
62	3
63	16
64	6
65	117
66	7
67	8
68	2
69	45
70	25
71	103
72	9
73	1
74	2
75	0
76	1
77	19
78	2
80	0
81	1
82	0
83	9
84	3
85	1
86	0
87	1
88	0
89	24
90	26
91	999
92	103
93	6
94	0
95	1
96	1
97	0
98	7
99	1
100	2
101	0
102	0
103	1
104	1
105	42
106	9
107	12
108	5
109	1
110	0
111	5
112	0
113	0
114	0
115	0
116	0
117	1
118	5
119	15
120	22
121	4
122	2
123	35
124	13
125	3
126	0
127	0
129	0
130	0
131	1
132	4
133	5
134	2
135	5
136	0
137	10
138	2
139	417
140	42
141	23
142	2
143	0
145	0
146	0
147	0
148	0
149	0
150	2
151	1
152	4
153	1
154	1
155	368
156	38
157	21
158	1
159	0
160	0
161	4
162	2
163	0
165	3
166	2
167	1
168	3
169	0
171	3
172	0
173	0
174	0
175	0
177	0
178	0
179	29
180	3
181	3
182	1
183	3
184	74
185	7
186	4
187	0
188	0
194	0
195	0
196	1
197	3
198	69
199	8
200	4
201	0
207	0
208	0
209	821
210	103
211	45
212	6
213	1
214	0
223	1
224	1
225	30
226	5
227	539
228	71
229	31
230	2
231	0
237	0
238	2
239	17
240	2
241	2
242	0
245	0
246	0
249	0
252	0
253	0
254	44
255	48
256	8
257	2
259	0
261	0
277	0
280	0
289	0
316	0
317	0
345	0
363	0
367	0
369	7
370	1
371	0
379	1
381	543
382	119
383	65
384	12
385	2
393	0
394	0
395	0
397	0
408	0
410	62
411	14
412	7
413	1
414	0
433	0
500	0
564	0
565	1
566	0
567	0
