Mass Spectrum: 2-Hexyl-1,3-benzodioxane
Formula: C14H20O2
CAS: 56182-52-6
Molecular weight: 220
m/z	intensity
55	378
57	160
67	210
70	180
77	190
78	851
82	411
83	241
85	91
86	36
91	97
92	61
93	42
94	30
95	72
96	73
97	54
98	20
104	72
105	145
106	999
107	439
108	98
109	41
110	23
112	29
113	72
115	35
117	60
118	24
119	54
120	23
121	90
122	96
123	30
124	30
130	59
131	54
132	23
133	29
134	23
135	108
136	24
145	30
166	90
167	47
168	47
174	30
220	168
221	36
