Mass Spectrum: Hydroxylamine, O-(2-methylpropyl)-
Formula: C4H11NO
CAS: 5618-62-2
Molecular weight: 89
m/z	intensity
39	273
40	40
41	787
42	273
43	999
44	93
45	33
46	80
47	10
50	7
51	10
53	27
54	7
55	240
56	200
57	540
58	67
59	14
60	10
69	14
70	87
71	240
72	33
73	10
74	20
75	7
89	7
