Mass Spectrum: 2-Propyl-1,3-benzodioxane
Formula: C11H14O2
CAS: 56182-51-5
Molecular weight: 178
m/z	intensity
50	39
51	89
52	91
53	29
55	121
71	99
72	49
77	138
78	745
79	9
98	50
106	999
107	389
121	20
126	49
135	79
178	330
179	49
