Mass Spectrum: Cyclobutane, 3-ethenyl-1,1,2-trifluoro-
Formula: C6H7F3
CAS: 56196-27-1
Molecular weight: 136
m/z	intensity
50	40
51	105
52	58
53	81
54	999
55	58
57	53
59	73
64	34
72	559
73	26
77	59
90	76
95	27
96	12
97	31
103	10
115	10
116	11
136	12
