Mass Spectrum: Methyl 2-acetamido-2-deoxy-3-O-methyl-.alpha.-D-galactopyranoside, 2TMS derivative
Formula: C16H35NO6Si2
CAS: 56196-91-9
Molecular weight: 393
m/z	intensity
30	9
31	6
44	18
45	58
47	8
51	18
54	6
55	19
56	11
57	10
58	39
59	42
60	10
61	10
68	10
69	263
70	23
71	19
72	31
73	853
74	83
75	319
76	25
77	9
79	9
80	24
81	17
82	7
83	15
84	23
85	17
86	29
87	7
88	7
89	107
90	6
91	12
95	8
96	34
97	11
98	47
99	23
100	24
101	38
102	26
103	102
104	11
105	11
108	12
109	7
110	14
111	20
112	32
113	21
114	19
115	999
116	143
117	94
118	22
119	89
120	6
122	33
123	9
124	7
125	6
126	24
127	9
128	74
129	49
130	19
131	134
132	33
133	70
134	9
135	10
138	10
139	6
140	31
141	18
142	21
143	17
144	53
145	23
146	119
147	159
148	36
149	31
150	26
151	11
152	8
153	18
154	15
155	11
156	24
157	23
158	38
159	28
160	36
161	8
162	6
163	20
168	20
169	92
170	39
171	22
172	36
173	247
174	51
175	36
176	15
177	8
181	44
182	26
183	14
184	18
185	15
186	440
187	84
188	64
189	109
190	27
191	37
192	8
196	17
197	8
198	25
199	14
200	16
201	66
202	23
203	22
204	37
205	18
207	8
210	33
211	23
212	23
213	9
214	38
215	11
216	20
217	113
218	173
219	62
220	16
224	23
226	7
228	7
229	9
230	35
231	42
232	9
240	32
241	9
242	11
243	20
244	8
245	6
246	7
247	40
248	11
249	6
255	6
256	26
257	8
258	9
259	18
260	22
261	48
262	14
269	10
271	6
272	9
274	9
288	7
289	14
294	6
302	19
303	10
315	64
316	16
317	9
330	20
331	13
347	13
363	8
379	9
382	7
