Mass Spectrum: Pregnane-11,20-dione, 3,17-dihydroxy-
Formula: C21H32O4
CAS: 56193-64-7
Molecular weight: 348
m/z	intensity
40	32
41	376
42	49
43	999
44	35
45	76
50	18
51	19
52	20
53	127
54	17
55	430
56	15
57	146
58	22
59	24
65	57
66	30
67	329
68	185
69	232
70	23
71	95
77	154
78	39
79	320
80	60
81	335
82	25
83	152
84	41
85	73
86	17
87	134
91	304
92	72
93	355
94	111
95	326
96	110
97	178
98	33
99	21
100	23
101	16
103	31
104	17
105	264
106	98
107	412
108	252
109	303
110	93
111	114
113	34
114	19
115	29
116	20
117	69
118	43
119	173
120	84
121	450
122	166
123	229
124	89
125	68
128	25
129	46
130	20
131	100
132	38
133	196
134	84
135	250
136	170
137	120
138	43
139	28
140	14
141	19
143	56
144	35
145	132
146	41
147	285
148	106
149	175
150	42
151	27
153	15
155	27
157	47
158	27
159	132
160	66
161	166
162	52
163	54
164	19
165	58
166	15
167	20
169	34
171	58
172	17
173	121
174	59
175	109
176	25
177	60
178	15
179	29
181	20
182	20
183	21
185	59
187	67
188	30
189	48
190	18
191	82
192	24
193	65
194	23
195	15
197	22
199	52
201	80
203	29
204	14
205	20
206	27
207	26
208	30
209	26
211	66
212	17
213	54
215	46
216	19
217	26
219	55
220	28
221	20
222	16
224	26
225	60
226	31
227	87
228	16
229	114
230	33
231	56
232	16
233	25
234	241
235	107
237	26
239	16
241	33
242	28
243	113
244	52
245	68
246	28
247	76
248	130
249	40
251	28
257	17
259	167
261	437
262	113
267	26
269	81
270	19
273	18
274	24
275	34
277	33
279	22
285	50
287	135
289	14
297	35
301	16
302	20
303	28
305	55
306	20
312	26
314	16
315	42
319	22
320	23
330	106
332	35
333	32
346	28
348	461
