Mass Spectrum: .alpha.-D-Glucopyranose, 2-amino-3,6-anhydro-2-deoxy-1,4-bis-O-(trimethylsilyl)-
Formula: C12H27NO4Si2
CAS: 56196-81-7
Molecular weight: 305
m/z	intensity
30	199
31	27
41	73
42	27
43	214
45	275
46	29
47	73
54	23
55	33
56	58
57	42
58	77
59	157
60	37
61	92
68	54
69	289
70	134
71	451
72	92
73	878
74	208
75	693
76	42
80	48
81	52
83	46
84	31
85	31
89	56
91	27
96	63
97	762
98	79
99	33
100	48
101	999
102	149
103	132
115	92
116	838
117	512
118	117
128	81
129	170
130	52
131	214
132	77
133	73
142	88
143	130
144	609
145	119
146	67
156	31
157	607
158	176
159	73
160	27
170	29
172	56
173	25
182	35
191	37
200	23
258	27
290	39
