Mass Spectrum: Pregnan-20-one, 3,17,21-tris[(trimethylsilyl)oxy]-, O-methyloxime, (3.alpha.,5.beta.)-
Formula: C31H61NO4Si3
CAS: 56196-43-1
Molecular weight: 595
m/z	intensity
41	40
42	10
43	40
44	10
45	40
46	5
47	15
49	5
50	5
51	5
52	5
53	10
54	15
55	100
56	10
57	15
58	10
59	40
60	5
61	20
63	5
65	5
66	5
67	75
68	20
69	40
70	10
71	10
72	25
73	999
74	120
75	470
76	35
77	40
78	5
79	80
80	20
81	145
82	20
83	25
84	35
85	10
86	5
87	5
88	5
89	80
90	10
91	95
92	20
93	115
94	35
95	110
96	15
97	15
98	10
99	10
100	20
101	40
102	10
103	230
104	30
105	150
106	35
107	155
108	30
109	55
110	10
111	5
112	5
113	20
114	45
115	45
116	30
117	45
118	30
119	75
120	25
121	60
122	15
123	20
124	5
125	5
126	10
127	15
128	25
129	100
130	35
131	75
132	35
133	100
134	20
135	40
136	10
137	5
138	5
139	5
140	10
141	25
142	25
143	70
144	30
145	95
146	30
147	200
148	35
149	40
150	10
151	10
152	5
153	5
154	25
155	35
156	30
157	35
158	25
159	70
160	25
161	65
162	20
163	20
164	5
165	10
166	10
167	15
168	85
169	50
170	35
171	35
172	75
173	65
174	25
175	20
176	10
177	5
178	5
179	5
180	10
181	20
182	55
183	25
184	25
185	30
186	15
187	30
188	20
189	15
190	5
191	20
192	5
193	10
194	10
195	15
196	15
197	20
198	60
199	35
200	20
201	35
202	95
203	55
204	30
205	35
206	10
207	15
208	15
209	15
210	25
211	15
212	15
213	25
214	35
215	60
216	45
217	25
218	10
219	5
220	10
221	15
222	10
223	10
224	10
225	10
226	10
227	20
228	20
229	30
230	25
231	10
232	15
233	10
234	5
235	10
236	5
237	5
238	10
239	25
240	10
241	20
242	20
243	35
244	120
245	55
246	160
247	30
248	15
249	5
250	5
251	5
252	10
253	65
254	35
255	180
256	50
257	20
258	35
259	20
260	35
261	15
262	10
263	15
264	5
265	5
266	10
267	10
268	5
269	5
270	25
271	20
272	15
273	5
274	5
275	30
276	90
277	30
278	15
279	5
280	10
281	5
282	10
283	5
284	5
285	5
286	5
287	5
288	30
289	15
290	10
291	5
292	5
293	5
294	60
295	20
296	5
297	5
298	15
299	5
300	5
302	10
303	5
304	5
305	5
310	5
311	5
312	10
313	5
315	5
316	5
317	10
318	5
319	5
325	5
326	15
327	5
328	5
329	15
330	5
331	5
341	5
342	5
343	15
344	10
345	20
346	10
347	10
348	5
352	5
354	5
355	5
356	10
357	5
358	5
360	20
361	5
362	5
367	5
368	5
369	5
370	5
371	15
372	10
373	5
377	5
382	5
383	10
384	190
385	55
386	30
387	5
400	5
402	10
403	5
405	5
406	5
415	10
416	10
417	5
418	5
419	20
420	15
421	5
422	5
432	5
433	25
434	30
435	40
436	15
437	5
443	10
444	10
445	5
446	20
447	10
448	5
452	20
453	10
458	5
459	5
460	10
461	5
462	5
472	5
473	20
474	340
475	150
476	50
477	15
478	5
490	10
491	10
492	125
493	50
494	20
495	5
505	20
506	10
507	5
509	5
510	5
524	5
533	5
534	5
535	5
536	5
548	5
549	5
550	5
562	10
563	30
564	999
565	480
566	210
567	65
568	20
569	5
580	30
581	15
582	5
595	200
596	95
597	45
598	15
599	5
