Mass Spectrum: D-Glucose, 2,3,6-tri-O-methyl-4,5-bis-O-(trimethylsilyl)-, O-methyloxime
Formula: C16H37NO6Si2
CAS: 56196-12-4
Molecular weight: 395
m/z	intensity
27	22
28	49
29	26
30	9
31	32
41	22
42	29
43	26
44	22
45	308
46	9
47	26
55	13
56	13
57	13
58	19
59	131
61	9
69	13
70	9
71	49
72	29
73	999
74	85
75	170
84	13
85	13
86	9
87	9
88	52
89	318
90	26
91	19
99	59
100	13
101	59
102	911
103	439
104	39
105	26
112	9
115	95
116	65
117	36
119	29
128	6
129	39
130	6
131	124
132	13
133	91
134	6
143	29
145	13
146	55
147	904
148	108
149	39
159	216
160	39
161	39
163	16
173	6
175	19
177	6
186	39
187	9
188	9
189	22
201	19
202	19
203	301
204	55
205	19
216	39
217	29
218	9
219	213
220	45
221	19
233	26
247	16
248	111
249	131
250	26
251	9
293	26
350	19
