Mass Spectrum: 2-Butenoic acid, 2-methyl-, dodecahydro-3a,8c-dimethyl-6-methylene-7-oxooxireno[7,8]naphtho[1,2-b]furan-3-yl ester, [1ar-[1a.alpha.,3.beta.(Z),3a.alpha.,5a.beta.,8a.alpha.,8b.beta.,8c.alpha.]]-
Formula: C20H26O5
CAS: 56196-59-9
Molecular weight: 346
m/z	intensity
29	585
30	585
39	638
40	159
41	595
43	574
44	95
45	106
51	106
52	85
53	999
54	478
55	851
56	212
65	159
67	265
69	212
71	159
77	255
79	265
80	106
81	414
82	723
83	957
84	638
85	159
91	340
93	212
95	372
96	159
100	212
105	212
106	265
107	265
108	159
109	319
111	425
117	106
119	159
121	159
122	265
123	319
124	212
130	159
134	319
139	436
145	159
147	106
153	372
157	106
159	106
161	106
163	106
171	74
173	159
175	138
189	106
199	127
201	85
203	95
217	159
218	212
219	159
227	159
245	212
262	489
263	765
264	159
