Mass Spectrum: Benzenepropanoic acid, .alpha.-(aminooxy)-
Formula: C9H11NO3
CAS: 5619-43-2
Molecular weight: 181
m/z	intensity
44	260
45	73
51	77
59	62
65	160
77	100
79	110
91	999
103	120
107	350
120	150
131	160
149	180
164	12
166	15
181	5
