Mass Spectrum: Pregn-16-ene-11,20-dione, 3-(acetyloxy)-
Formula: C23H32O4
CAS: 56193-63-6
Molecular weight: 372
m/z	intensity
41	107
43	999
53	39
55	119
57	6
65	19
67	125
68	10
69	34
77	73
78	15
79	153
80	30
81	141
82	10
83	16
91	166
92	38
93	178
94	51
95	74
97	6
103	11
104	7
105	159
106	40
107	149
108	52
109	60
110	14
111	8
115	14
117	30
118	10
119	99
120	37
121	123
122	126
123	97
124	48
125	12
128	10
129	17
131	42
132	13
133	96
134	39
135	237
136	147
137	49
138	36
143	16
144	36
145	61
146	47
147	412
148	127
149	188
150	43
151	13
157	18
159	18
160	13
161	48
162	15
163	116
164	29
165	29
166	7
171	12
173	24
175	24
176	8
183	6
187	6
189	18
191	24
204	70
205	12
217	61
218	9
225	9
227	12
235	10
241	34
251	34
252	8
253	11
255	12
258	93
259	18
268	19
269	57
270	33
279	16
284	11
287	6
294	17
297	70
298	14
301	19
312	269
313	66
314	13
328	7
329	24
330	28
344	54
357	30
358	6
372	137
