Mass Spectrum: Tetracosanoic acid, 23-oxo-, methyl ester
Formula: C25H48O3
CAS: 56196-16-8
Molecular weight: 396
m/z	intensity
51	39
53	65
54	127
55	891
56	132
57	363
58	999
59	355
63	72
64	33
65	35
67	182
68	193
69	452
70	150
71	552
72	79
73	40
74	757
75	180
80	70
81	234
82	67
83	373
84	283
85	235
86	34
87	534
88	117
90	38
93	39
94	85
95	218
96	173
97	476
98	839
99	152
100	34
101	132
103	39
105	46
107	63
108	30
109	237
110	150
111	388
112	285
113	95
122	33
124	87
125	243
126	115
127	130
128	67
129	126
130	34
135	119
137	158
138	114
139	185
140	36
141	159
142	65
143	203
145	33
147	33
152	111
153	60
154	78
155	41
156	31
163	136
165	63
166	37
167	82
168	77
177	58
187	31
189	36
193	41
199	63
213	36
221	64
222	99
223	38
227	131
235	62
239	40
249	37
251	41
252	40
263	86
264	102
265	133
266	106
267	96
270	85
277	30
280	31
283	55
289	96
296	47
306	522
307	317
308	86
321	36
338	124
339	242
340	36
341	67
346	33
349	34
353	34
354	53
355	38
364	85
365	131
396	156
