Mass Spectrum: .beta.-Cortolone, 4TMS derivative
Formula: C33H66O5Si4
CAS: 56196-47-5
Molecular weight: 654
m/z	intensity
14	13
15	22
16	12
17	1
18	7
26	10
27	9
28	24
29	7
39	13
41	26
42	3
43	26
44	8
45	42
46	7
47	7
50	7
51	8
53	9
55	47
56	9
57	9
58	8
59	24
61	12
66	8
67	48
68	8
69	29
71	8
72	12
73	999
74	86
75	190
76	13
77	26
78	9
79	45
80	8
81	59
82	9
83	16
85	9
89	16
91	52
92	8
93	68
94	17
95	65
96	9
97	10
99	8
101	18
103	84
104	13
105	68
106	10
107	63
108	10
109	29
113	8
115	13
116	10
117	72
118	13
119	37
120	10
121	31
122	8
123	13
125	7
127	9
128	7
129	99
130	20
131	48
132	12
133	67
134	14
135	20
137	4
140	7
141	12
142	10
143	45
144	10
145	37
146	8
147	251
148	42
149	48
150	9
151	7
154	21
155	30
156	9
157	22
158	7
159	31
160	12
161	51
162	9
163	9
165	8
167	12
168	9
169	46
170	12
171	20
172	8
173	21
174	7
175	29
176	9
177	12
179	8
181	12
182	12
183	18
185	17
187	35
188	9
189	71
190	17
191	130
192	26
193	22
194	8
195	21
196	10
197	12
199	13
201	12
203	10
204	14
205	42
206	9
207	12
208	10
209	12
211	42
212	8
213	22
214	7
215	17
216	8
217	46
218	13
219	16
221	13
222	9
223	10
225	13
226	7
227	55
228	13
229	21
230	18
231	42
232	13
233	13
235	9
236	7
237	12
239	9
241	27
242	13
243	213
244	62
245	27
246	8
247	8
249	8
251	14
252	7
253	17
255	8
256	7
259	8
263	10
265	16
267	9
269	148
270	37
271	10
277	8
278	7
279	12
281	26
282	12
283	7
285	7
287	12
288	8
289	8
291	8
293	8
295	20
296	9
299	7
303	8
305	13
306	8
315	8
317	12
318	7
329	7
333	9
341	10
343	13
344	8
353	7
357	8
358	10
359	276
360	89
361	31
362	16
363	7
371	34
372	13
373	7
385	12
387	7
394	13
431	7
433	8
446	7
447	8
448	29
449	536
450	211
451	82
452	20
459	9
460	7
461	27
462	12
463	9
475	8
549	9
550	24
551	207
552	102
553	48
554	16
564	9
565	7
566	7
654	29
655	17
656	10
