Mass Spectrum: Butyric acid, undec-10-enyl ester
Formula: C15H28O2
CAS: 56195-37-0
Molecular weight: 240
m/z	intensity
26	21
27	192
28	99
29	217
31	22
36	11
37	8
38	13
39	179
40	39
41	796
42	187
43	914
44	38
45	27
51	12
52	7
53	67
54	605
55	857
56	125
57	92
58	11
60	59
61	6
65	16
66	64
67	481
68	726
69	512
70	83
71	999
72	47
73	34
77	12
79	29
80	29
81	452
82	676
83	212
84	29
85	17
86	9
87	9
88	36
89	551
90	31
91	8
93	8
94	19
95	339
96	378
97	124
98	21
100	12
101	13
109	168
110	223
111	53
112	7
122	7
123	79
124	89
125	12
137	9
144	7
152	97
153	14
168	2
169	2
