Mass Spectrum: D-Fructose, 1,3,4,5,6-pentakis-O-(trimethylsilyl)-, O-methyloxime
Formula: C22H55NO6Si5
CAS: 56196-14-6
Molecular weight: 569
m/z	intensity
26	1
27	3
28	11
29	9
30	2
31	7
32	1
35	0
39	1
40	1
41	13
42	6
43	20
44	19
45	112
46	6
47	9
51	0
52	2
53	2
54	5
55	7
56	2
57	5
58	15
59	60
60	5
61	6
62	0
65	0
66	2
67	1
68	1
69	2
70	4
71	5
72	30
73	999
74	145
75	104
76	5
77	2
80	0
81	0
82	4
83	1
84	22
85	5
86	2
87	6
88	7
89	76
90	6
91	3
93	0
94	0
96	0
97	0
98	2
99	4
100	15
101	18
102	7
103	826
104	101
105	46
106	2
107	0
110	0
111	1
112	0
113	6
114	13
115	7
116	7
117	98
118	10
119	11
120	1
121	0
125	0
126	3
127	2
128	4
129	49
130	11
131	31
132	4
133	131
134	15
135	8
136	0
140	1
141	1
142	5
143	10
144	2
145	8
146	2
147	322
148	51
149	32
150	3
151	1
152	2
153	6
154	6
155	3
156	3
157	11
158	4
159	4
160	1
161	4
162	0
163	12
164	2
165	1
166	0
168	1
169	0
170	1
171	0
172	34
173	30
174	7
175	13
176	2
177	8
178	1
179	0
180	1
182	0
184	0
185	0
186	2
187	2
188	4
189	71
190	16
191	41
192	7
193	3
194	0
196	0
198	1
199	0
200	2
201	18
202	16
203	10
204	40
205	87
206	18
207	16
208	3
209	1
210	0
212	0
213	0
214	5
215	2
216	10
217	481
218	110
219	49
220	7
221	14
222	2
223	1
228	1
229	3
230	7
231	19
232	5
233	3
234	0
235	8
236	1
237	0
240	1
242	2
243	1
244	7
245	2
246	2
247	3
248	1
249	1
250	1
251	0
254	0
256	8
257	1
258	1
259	0
260	6
261	4
262	15
263	18
264	4
265	2
266	0
268	0
270	1
271	0
272	0
273	0
274	1
275	3
276	5
277	77
278	22
279	11
280	2
281	0
286	0
288	5
289	1
290	0
291	16
292	4
293	2
294	0
300	1
301	0
302	4
303	3
304	2
305	6
307	452
308	145
309	72
310	13
311	3
316	0
318	4
319	6
320	2
321	1
328	0
330	4
331	1
332	4
333	5
334	8
335	21
336	7
337	3
338	0
344	0
345	0
346	0
350	3
351	0
352	0
358	0
360	0
364	34
365	10
366	4
367	0
376	2
377	0
378	0
390	1
392	0
393	2
394	0
402	0
434	0
448	0
464	2
465	0
466	1
492	0
554	4
555	2
556	1
569	3
