Mass Spectrum: D-Galactose, 6-deoxy-2,3,4,5-tetrakis-O-(trimethylsilyl)-, O-methyloxime
Formula: C19H47NO5Si4
CAS: 56196-05-5
Molecular weight: 481
m/z	intensity
45	31
59	22
72	4
73	572
74	40
75	54
89	13
100	4
101	4
103	9
105	4
115	4
117	999
118	95
119	36
129	40
130	4
131	36
133	27
143	4
147	109
148	18
149	13
160	127
161	40
162	4
189	4
191	18
201	27
203	9
204	18
205	9
217	0
219	6
220	0
221	0
231	31
232	4
233	18
244	4
246	4
262	4
274	4
277	6
278	1
279	0
292	4
294	4
305	4
321	36
322	9
364	4
376	4
466	4
