Mass Spectrum: Pregn-16-en-20-one, 3-(acetyloxy)-, (3.alpha.)-
Formula: C23H34O3
CAS: 56193-61-4
Molecular weight: 358
m/z	intensity
41	103
43	999
53	24
55	114
57	7
60	8
61	7
65	14
67	112
68	12
69	35
77	67
78	15
79	125
80	18
81	149
82	12
83	24
91	143
92	29
93	223
94	30
95	100
105	129
106	29
107	149
108	39
109	82
111	39
115	14
117	38
118	8
119	91
120	20
121	121
122	20
123	17
128	7
129	21
130	10
131	59
132	11
133	76
134	33
135	128
136	32
137	33
143	20
144	8
145	80
146	22
147	117
148	20
149	88
150	7
155	7
157	19
159	63
160	17
161	133
162	23
163	25
171	17
173	81
174	18
175	56
185	12
187	69
188	42
189	23
199	20
200	11
201	62
202	19
203	7
213	12
214	10
215	7
229	11
239	13
253	13
254	7
255	548
265	28
269	11
271	9
283	353
284	71
298	87
299	19
314	7
315	160
316	32
343	59
344	12
358	336
