Mass Spectrum: Cyclobutane, 2-ethenyl-1,1,4-trifluoro-
Formula: C6H7F3
CAS: 56196-28-2
Molecular weight: 136
m/z	intensity
53	22
54	999
55	48
59	6
64	54
72	74
77	16
90	360
95	11
96	4
97	8
103	2
115	2
116	4
136	9
