Mass Spectrum: Pregnan-20-one, 3,21-bis[(trimethylsilyl)oxy]-, O-methyloxime, (3.alpha.,5.beta.)-
Formula: C28H53NO3Si2
CAS: 56196-41-9
Molecular weight: 507
m/z	intensity
40	20
41	145
42	35
43	105
44	45
45	130
46	5
47	25
48	5
49	5
50	10
51	10
52	15
53	40
54	40
55	240
56	45
57	70
58	35
59	100
60	20
61	50
62	5
63	5
65	15
66	15
67	210
68	50
69	100
70	55
71	45
72	40
73	999
74	140
75	860
76	65
77	85
78	20
79	200
80	55
81	300
82	50
83	75
84	35
85	40
86	15
87	15
88	30
89	255
90	25
91	200
92	45
93	270
94	75
95	240
96	45
97	40
98	190
99	25
100	25
101	35
102	30
103	265
104	50
105	20
106	55
107	235
108	60
109	120
110	30
111	30
112	15
113	20
114	30
115	30
116	30
117	55
118	55
119	175
120	60
121	95
122	25
123	40
124	15
125	15
126	20
127	20
128	30
129	100
130	70
131	90
132	110
133	130
134	45
135	80
136	15
137	15
138	10
139	10
140	10
141	20
142	65
143	60
144	120
145	115
146	45
147	135
148	35
149	60
150	15
151	10
152	5
153	10
154	10
155	60
156	80
157	55
158	280
159	120
160	55
161	95
162	40
163	30
164	10
165	10
166	5
167	5
168	10
169	25
170	35
171	45
172	80
173	65
174	35
175	730
176	160
177	45
178	15
179	10
180	5
181	10
182	10
183	25
184	25
185	35
186	25
187	50
188	999
189	170
190	55
191	10
192	10
193	10
194	5
195	10
196	10
197	20
198	15
199	30
200	25
201	75
202	30
203	15
204	10
205	5
206	5
207	55
208	15
209	15
210	10
211	15
212	10
213	25
214	40
215	75
216	25
217	15
218	5
220	5
221	10
222	5
223	20
224	10
225	20
226	15
227	30
228	20
229	20
230	25
231	40
232	25
233	5
235	5
236	5
237	13
238	10
239	15
240	25
241	150
242	50
243	40
244	15
245	5
246	20
247	5
251	5
253	20
254	15
255	80
256	25
257	130
258	25
259	5
260	5
263	5
264	5
265	10
266	10
267	15
268	35
269	15
270	5
276	5
277	5
278	5
279	40
280	15
281	20
282	60
283	60
284	20
285	5
290	5
291	5
292	5
294	5
295	5
296	40
297	10
298	5
312	5
313	5
314	60
315	15
316	10
317	5
318	5
330	5
331	10
332	5
333	5
340	5
341	5
342	5
343	5
345	5
354	15
355	10
356	10
357	10
358	80
359	25
360	10
361	5
362	5
369	10
370	10
371	5
372	25
373	10
374	10
375	5
384	5
385	10
386	180
387	60
388	20
389	5
402	15
403	10
404	110
405	35
406	10
407	5
417	5
418	5
429	5
430	10
431	5
443	5
444	10
445	20
446	40
447	45
448	35
449	25
450	15
451	10
452	5
459	5
460	20
461	10
462	25
463	10
464	5
475	5
476	670
477	290
478	120
479	30
480	10
481	5
492	15
493	5
503	5
504	5
505	10
506	20
507	585
508	250
509	95
510	25
