Mass Spectrum: D-Ribose, 2,3-di-O-methyl-4,5-bis-O-(trimethylsilyl)-, O-methyloxime
Formula: C14H33NO5Si2
CAS: 56196-37-3
Molecular weight: 351
m/z	intensity
30	28
31	57
32	119
41	33
43	38
44	42
45	180
51	28
53	38
54	138
71	71
72	33
73	999
74	114
75	133
84	28
88	323
89	209
99	28
100	33
101	42
102	209
103	485
104	38
115	61
116	38
117	142
131	190
133	85
143	28
146	38
147	295
148	47
149	28
159	109
199	42
205	171
206	28
207	28
217	76
219	85
249	190
251	33
