Mass Spectrum: Pregn-5-en-20-one, 3,21-bis[(trimethylsilyl)oxy]-, O-methyloxime, (3.beta.)-
Formula: C28H51NO3Si2
CAS: 56196-40-8
Molecular weight: 505
m/z	intensity
41	240
42	45
43	100
44	60
45	330
46	20
47	85
48	5
49	5
50	5
51	15
52	5
53	80
54	65
55	300
56	60
57	25
58	110
59	350
60	45
61	115
62	10
63	10
65	45
66	25
67	305
68	65
69	100
70	60
71	20
72	120
73	999
74	450
75	999
76	105
77	200
78	40
79	390
80	100
81	370
82	60
83	35
84	50
85	45
86	10
87	20
88	85
89	935
90	75
91	500
92	85
93	445
94	80
95	210
96	40
97	10
98	160
99	30
100	35
101	70
102	25
103	635
104	100
105	500
106	100
107	325
108	50
109	75
110	40
111	15
112	20
113	25
114	40
115	90
116	75
117	200
118	120
119	440
120	150
121	180
122	40
123	30
124	15
125	5
126	15
127	40
128	85
129	999
130	265
131	340
132	180
133	265
134	70
135	70
136	15
137	15
138	10
139	15
140	20
141	55
142	110
143	205
144	190
145	300
146	95
147	135
148	35
149	30
150	15
151	10
152	15
153	20
154	30
155	80
156	100
157	180
158	350
159	245
160	80
161	75
162	25
163	15
164	10
165	15
166	15
167	20
168	25
169	75
170	50
171	85
172	100
173	90
174	30
175	600
176	120
177	45
178	15
179	15
180	15
181	40
182	25
183	75
184	45
185	60
186	45
187	35
188	435
189	70
190	30
191	15
192	10
193	25
194	20
195	50
196	35
197	105
198	40
199	55
200	35
201	35
202	15
203	10
204	10
205	10
206	10
207	25
208	15
209	40
210	25
211	50
212	40
213	80
214	40
215	55
216	20
217	5
218	5
219	10
220	10
221	30
222	20
223	45
224	30
225	40
226	25
227	25
228	30
229	10
230	5
231	10
232	10
233	10
234	10
235	35
236	25
237	30
238	35
239	250
240	75
241	50
242	60
243	15
244	5
245	10
246	10
247	10
248	15
249	20
250	15
251	25
252	25
253	80
254	35
255	100
256	20
257	5
258	5
259	5
260	10
261	5
262	10
263	15
264	10
265	20
266	45
267	20
268	5
270	5
271	5
272	5
273	10
276	5
277	80
278	30
279	10
280	50
281	35
282	15
283	5
284	5
285	10
293	5
294	35
295	15
296	10
301	10
310	15
311	10
312	80
313	25
314	55
315	70
316	20
317	5
318	10
326	10
327	5
328	10
329	10
330	15
338	10
339	5
340	10
341	10
342	15
343	10
344	30
345	30
346	5
352	10
353	10
354	25
355	10
356	25
357	10
358	10
367	10
368	20
369	10
370	20
371	25
372	10
373	5
374	5
375	5
376	25
377	10
382	10
383	10
384	155
385	55
386	20
387	10
389	10
398	40
399	20
400	175
401	65
402	15
403	10
404	5
414	15
415	10
427	20
428	15
441	10
442	10
443	30
444	30
445	25
446	20
447	10
456	10
457	40
458	20
459	25
460	10
473	5
474	550
475	250
476	100
477	25
478	5
489	10
490	120
491	50
492	20
493	5
504	30
505	470
506	210
507	75
508	20
509	5
