Mass Spectrum: Pregn-4-ene-3,20-dione, 2,2-dimethyl-
Formula: C23H34O2
CAS: 56196-80-6
Molecular weight: 342
m/z	intensity
42	10
43	999
53	56
55	208
57	13
59	10
65	27
66	12
67	145
68	17
69	76
70	22
71	84
77	97
78	21
79	173
80	32
81	180
82	16
83	48
84	47
85	57
91	222
92	31
93	174
94	48
95	155
96	20
97	10
103	10
104	8
105	170
106	46
107	207
108	44
109	117
111	15
115	13
117	52
118	18
119	121
120	42
121	143
122	42
123	66
124	12
125	25
128	10
129	22
130	10
131	58
132	29
133	139
134	74
135	138
136	46
137	71
138	19
139	16
143	27
144	8
145	65
146	19
147	130
148	29
149	84
150	31
151	58
152	198
153	23
155	7
157	21
158	8
159	49
160	25
161	40
163	27
164	9
165	20
169	10
171	24
172	10
173	75
174	20
175	29
177	17
183	7
185	22
186	14
187	56
188	17
189	22
190	16
191	32
192	10
199	13
200	10
201	59
202	14
203	10
213	7
214	7
215	16
216	13
225	12
227	26
228	16
229	208
230	33
239	8
243	42
244	37
254	11
257	27
258	17
259	26
261	7
271	134
272	355
273	72
274	7
286	987
299	119
300	32
301	8
309	7
314	13
324	7
326	23
327	25
328	7
329	10
342	626
343	82
