Mass Spectrum: Butanoic acid, 4-[methyl[4-(1-pyrrolidinyl)-2-butynyl]amino]-, methyl ester
Formula: C14H24N2O2
CAS: 56196-54-4
Molecular weight: 252
m/z	intensity
40	103
41	222
42	611
59	190
68	127
69	158
70	404
71	666
84	206
120	103
121	543
122	575
123	999
144	543
145	71
165	408
166	63
182	83
183	714
252	47
253	8
