Mass Spectrum: Cyclopropaneoctanal, 2-octyl-
Formula: C19H36O
CAS: 56196-06-6
Molecular weight: 280
m/z	intensity
65	46
66	92
67	749
68	470
69	999
70	644
71	322
72	59
77	52
78	39
79	263
80	342
81	815
82	717
83	976
84	536
85	236
86	46
87	23
91	46
92	29
93	269
94	263
95	805
96	684
97	914
98	878
99	125
100	49
105	23
106	19
107	203
108	157
109	401
110	289
111	559
112	381
113	55
114	26
121	401
122	131
123	184
124	141
125	190
126	207
127	39
163	92
164	19
165	39
166	72
167	92
168	42
169	23
177	26
178	26
179	26
180	52
181	148
182	29
183	16
233	18
234	20
235	10
236	41
237	38
238	18
239	6
262	84
279	17
280	158
281	32
282	5
