Mass Spectrum: .beta.-d-Glucopyranose, 2-(acetylamino)-3,6-anhydro-2-deoxy-1,4-bis-O-(trimethylsilyl)-
Formula: C14H29NO5Si2
CAS: 56196-85-1
Molecular weight: 347
m/z	intensity
30	30
31	56
39	20
42	58
43	148
45	30
46	26
47	82
49	30
53	28
54	47
56	58
58	45
59	189
60	43
61	62
67	30
68	67
69	39
70	33
71	65
72	54
73	999
74	109
76	107
80	26
81	20
82	24
83	39
84	69
85	60
89	124
91	20
96	69
97	304
98	41
100	33
101	345
102	39
103	184
104	20
109	32
110	22
111	33
112	20
113	37
116	268
117	319
118	47
125	24
126	67
127	26
129	124
130	28
131	86
132	69
133	60
139	32
141	30
143	67
144	75
145	30
147	48
155	28
156	33
157	101
158	88
159	441
160	438
161	43
166	30
169	22
170	24
173	33
174	37
182	133
183	39
184	35
186	67
198	20
199	47
200	56
202	251
203	26
215	32
224	43
242	45
243	58
258	684
259	150
260	41
272	37
332	26
