Mass Spectrum: .alpha.-l-Galactopyranoside, methyl 6-deoxy-2-O-(trimethylsilyl)-, cyclic butylboronate
Formula: C14H29BO5Si
CAS: 56196-84-0
Molecular weight: 316
m/z	intensity
30	29
31	32
33	11
35	12
36	45
37	20
38	26
39	47
40	50
41	192
42	65
43	285
44	347
45	251
46	23
47	108
48	26
49	25
50	16
51	30
52	21
53	53
54	62
55	342
56	157
57	125
58	32
59	147
60	28
61	45
63	28
64	21
65	29
66	35
67	44
68	30
69	109
70	49
71	52
72	48
73	999
74	163
75	740
76	48
77	84
78	34
79	27
80	22
81	47
82	49
83	124
84	43
85	44
86	27
88	19
89	198
90	33
91	39
92	20
93	86
94	31
95	55
96	44
97	52
98	32
99	41
100	24
101	89
102	23
103	68
104	17
105	28
106	15
107	18
108	26
109	44
110	59
111	87
112	34
113	31
114	19
115	228
116	96
117	109
118	27
119	31
121	30
122	13
123	29
124	31
125	42
126	28
127	30
128	18
129	69
130	952
131	252
132	70
133	87
134	21
135	33
137	24
138	48
139	69
141	35
142	27
143	123
144	31
145	39
146	198
147	53
148	27
150	14
151	19
152	25
153	60
154	15
155	11
156	26
157	85
158	28
159	34
160	15
161	19
163	15
164	15
165	29
166	38
167	62
168	54
169	30
170	19
171	24
173	26
174	13
175	24
178	14
179	24
180	39
181	38
182	15
183	25
184	19
185	76
186	22
187	22
189	18
191	16
192	13
193	19
194	38
195	50
196	14
198	72
199	294
200	53
203	15
207	20
208	40
209	113
210	151
211	26
221	25
222	54
223	83
224	23
226	14
227	30
228	11
236	21
237	13
241	14
256	11
268	16
269	40
271	21
282	11
