Mass Spectrum: (Z)-.alpha.-Atlantone
Formula: C15H22O
CAS: 56192-70-2
Molecular weight: 218
m/z	intensity
26	2
27	65
28	10
29	108
30	3
31	3
37	1
38	7
39	230
40	45
41	317
42	25
43	135
44	4
45	4
46	1
50	13
51	70
52	34
53	213
54	32
55	461
56	24
57	22
58	7
59	20
60	1
61	1
62	5
63	27
64	13
65	163
66	52
67	262
68	40
69	168
70	15
71	21
73	4
74	4
75	5
76	7
77	291
78	65
79	358
80	61
81	210
82	51
83	999
84	57
85	79
86	6
87	4
88	4
89	12
90	5
91	392
92	72
93	243
94	179
95	157
96	58
97	16
98	6
99	39
100	3
101	3
102	8
103	46
104	17
105	950
106	124
107	280
108	97
109	184
110	27
111	75
112	19
113	12
114	2
115	87
116	30
117	73
118	19
119	542
120	420
121	278
122	73
123	178
124	360
125	134
126	25
127	20
128	64
129	97
130	27
131	50
133	90
134	53
135	564
136	89
137	44
138	10
141	25
142	47
143	103
144	32
145	65
146	28
147	228
148	40
149	180
150	205
151	24
152	7
153	8
154	4
155	14
156	20
157	120
158	21
159	29
160	30
161	87
162	63
163	64
164	8
165	3
166	1
167	3
169	4
170	17
171	9
172	3
173	8
174	8
175	450
176	87
177	9
178	1
185	49
186	8
187	3
188	2
189	12
190	11
191	1
199	2
200	17
201	5
203	195
204	30
205	2
217	9
218	103
219	18
