Mass Spectrum: Androst-16-en-3-one, O-methyloxime, (5.beta.)-
Formula: C20H31NO
CAS: 56196-49-7
Molecular weight: 301
m/z	intensity
41	648
42	130
43	97
44	31
45	45
47	4
48	9
49	10
50	45
51	80
52	149
53	242
54	95
55	374
56	108
57	54
58	34
59	17
60	11
63	11
64	14
65	117
66	57
67	380
68	58
69	176
70	130
71	36
72	17
73	187
74	25
75	18
76	11
77	459
78	121
79	999
80	182
81	417
82	102
83	44
84	29
85	12
86	51
87	97
88	13
89	16
90	8
91	615
92	135
93	839
94	245
95	218
96	61
97	26
98	15
99	192
100	125
101	22
102	10
103	34
104	41
105	383
106	152
107	377
108	119
109	88
110	54
111	22
112	45
113	97
114	25
115	54
116	33
117	128
118	57
119	213
120	104
121	134
122	74
123	46
124	34
125	23
126	54
127	21
128	43
129	75
130	37
131	166
132	67
133	208
134	84
135	76
136	43
137	9
138	43
139	22
140	36
141	26
142	20
143	106
144	46
145	168
146	89
147	280
148	85
149	41
150	20
151	13
152	44
153	34
154	138
155	42
156	17
157	161
158	48
159	136
160	81
161	82
162	39
163	19
164	36
165	14
166	20
167	13
168	7
169	26
170	18
171	60
172	31
173	52
174	41
175	20
176	20
177	8
178	16
179	5
180	14
181	14
182	7
183	30
184	19
185	51
186	32
187	55
188	20
189	7
190	12
191	6
192	12
193	7
194	12
195	14
196	7
197	33
198	31
199	44
200	45
201	67
202	67
203	15
204	3
205	3
206	17
207	5
208	28
209	13
210	4
211	26
212	23
213	58
214	29
215	14
216	13
217	4
218	5
219	3
220	7
223	6
224	4
225	13
226	36
227	31
228	13
229	18
230	7
232	5
235	3
236	4
237	31
238	19
239	48
240	23
241	17
242	30
243	15
244	10
245	6
246	14
247	5
250	3
251	3
252	6
253	287
254	198
255	72
256	30
257	5
258	5
260	3
261	3
267	3
268	13
269	17
270	624
271	164
272	22
273	12
274	3
282	4
283	3
285	4
286	317
287	68
288	13
295	3
299	4
300	9
301	243
302	59
303	7
