Mass Spectrum: 2H-Pyran-2-methanol, 3,6-dihydro-3-hydroxy-6-(1-methylethoxy)-
Formula: C9H16O4
CAS: 56196-34-0
Molecular weight: 188
m/z	intensity
39	155
40	51
41	289
42	86
43	379
44	110
45	496
53	27
54	13
55	96
56	34
57	999
58	69
59	24
60	31
61	24
68	51
69	134
70	20
71	24
72	31
81	44
82	20
83	89
84	34
85	134
86	613
87	34
97	110
98	44
99	120
100	17
128	193
129	127
