Mass Spectrum: Pentadecane, 1-methoxy-13-methyl-
Formula: C17H36O
CAS: 56196-09-9
Molecular weight: 256
m/z	intensity
40	15
41	510
42	100
43	494
44	18
45	921
46	15
53	31
54	68
55	668
56	434
57	715
58	47
59	10
67	92
68	194
69	584
70	999
71	521
72	31
81	60
82	255
83	736
84	184
85	136
87	34
95	39
96	78
97	547
98	100
99	36
109	21
110	23
111	307
112	57
113	21
123	10
124	15
125	150
126	47
127	7
139	10
140	21
141	15
153	18
154	26
155	13
166	21
167	65
168	23
194	63
195	152
196	52
224	97
225	13
