Mass Spectrum: D-Glucitol, 2-amino-2-deoxy-1,3,4,5,6-pentakis-O-(trimethylsilyl)-
Formula: C21H55NO5Si5
CAS: 56196-64-6
Molecular weight: 541
m/z	intensity
72	18
73	944
74	100
75	999
89	22
100	9
101	18
102	9
103	174
104	9
105	4
115	9
116	91
117	68
118	18
119	9
128	22
129	59
130	18
131	36
132	178
133	55
134	13
142	13
143	13
144	32
145	13
147	201
148	36
149	32
156	9
157	9
158	9
168	9
169	9
170	4
175	9
182	13
189	32
190	9
191	32
203	9
204	174
205	96
206	32
215	9
216	18
217	587
218	137
219	64
220	9
221	9
229	4
230	36
231	27
232	27
233	9
234	9
243	9
244	9
246	13
247	9
248	9
258	55
259	13
260	4
271	9
272	4
277	4
291	4
305	4
307	36
308	4
309	4
319	18
320	9
348	36
349	9
361	82
362	27
363	9
437	9
438	32
439	9
451	4
526	18
527	9
528	4
