Mass Spectrum: 2H-Pyran-2-methanol, 6-ethoxy-3,6-dihydro-3-hydroxy-
Formula: C8H14O4
CAS: 56196-33-9
Molecular weight: 174
m/z	intensity
39	210
40	54
41	129
42	71
43	156
44	44
45	340
46	129
47	20
53	34
54	23
55	163
56	51
57	999
58	61
60	13
61	13
65	6
66	6
67	17
68	244
69	159
70	61
71	30
73	34
81	61
82	23
83	88
84	51
85	476
86	346
87	27
95	6
96	13
97	132
98	61
99	23
100	6
101	27
110	20
111	64
112	40
113	17
114	700
115	54
129	129
