Mass Spectrum: Butanal, 2,3,4-tris[(trimethylsilyl)oxy]-3-[[(trimethylsilyl)oxy]methyl]-, O-methyloxime, (S)-
Formula: C18H45NO5Si4
CAS: 56196-22-6
Molecular weight: 467
m/z	intensity
31	4
44	9
45	63
55	9
59	36
72	13
73	999
74	72
75	72
89	27
103	636
104	50
105	31
117	13
129	31
131	18
133	50
147	181
148	22
149	13
160	127
161	22
172	13
189	22
191	18
201	22
205	13
217	190
218	36
219	22
221	9
274	36
277	31
291	27
302	9
306	18
307	254
308	72
309	36
332	13
