Mass Spectrum: Methyl 2-acetamido-2-deoxy-3-O-methyl-.alpha.-D-galactopyranoside, 2TMS derivative
Formula: C16H35NO6Si2
CAS: 56196-89-5
Molecular weight: 393
m/z	intensity
30	22
31	52
36	15
38	16
39	30
41	45
42	21
43	196
44	96
45	134
46	21
47	29
49	15
51	20
52	28
53	16
54	21
55	29
56	43
57	29
58	77
59	129
60	21
61	34
67	15
68	20
69	40
70	17
71	37
72	46
73	999
74	111
75	504
76	45
77	54
78	17
79	52
80	28
81	17
83	26
84	53
85	25
86	49
87	20
88	12
89	123
90	12
91	12
95	14
96	17
97	14
98	73
99	30
100	15
101	56
102	24
103	122
104	16
105	15
108	18
109	16
110	12
111	22
112	20
113	16
114	26
115	846
116	132
117	191
118	41
119	28
121	13
122	30
126	24
127	20
128	49
129	62
130	22
131	86
132	19
133	78
134	12
135	12
138	23
140	17
141	13
142	22
143	16
144	45
145	31
146	180
147	231
148	42
149	31
150	14
153	11
154	16
155	19
156	32
157	32
158	25
159	34
160	29
163	15
167	16
168	72
169	45
170	27
171	11
172	35
173	145
174	47
175	19
176	15
181	12
182	25
183	14
185	13
186	217
187	54
188	58
189	41
190	11
191	38
196	15
197	13
198	26
199	13
200	38
201	39
202	20
203	18
204	22
205	11
211	19
212	11
213	15
214	33
216	21
217	104
218	128
219	39
220	23
224	12
226	40
227	11
228	11
230	26
231	13
239	14
240	13
243	11
247	12
256	14
258	19
259	20
260	22
261	31
272	13
287	12
288	15
314	11
329	12
330	16
346	11
378	19
