Mass Spectrum: 19-Norpregn-4-ene-3,20-dione, 17-(acetyloxy)-16-methyl-, (16.alpha.)-
Formula: C23H32O4
CAS: 56196-79-3
Molecular weight: 372
m/z	intensity
42	6
43	999
45	6
53	47
55	67
65	20
67	51
69	31
77	56
78	11
79	74
80	7
81	47
83	20
85	6
91	109
92	12
93	54
95	44
97	17
101	63
103	10
105	88
106	12
107	173
108	19
109	84
110	40
111	17
115	8
117	29
119	35
120	12
121	36
122	22
123	24
128	8
129	20
131	26
133	42
134	6
135	29
137	7
143	11
145	24
147	45
148	7
149	11
157	17
159	87
160	27
161	47
162	14
163	10
169	7
171	20
173	26
174	11
175	11
187	15
197	11
199	38
201	17
211	6
212	7
213	15
215	84
228	16
229	17
230	132
231	47
269	830
271	8
286	10
287	257
297	57
312	94
329	144
330	78
