Mass Spectrum: Methionine, 2-methyl-
Formula: C6H13NO2S
CAS: 562-48-1
Molecular weight: 163
m/z	intensity
26	23
27	159
28	102
29	56
30	116
31	150
35	65
36	14
37	5
38	8
39	54
40	21
41	213
42	743
43	299
44	82
45	117
46	41
47	117
48	29
49	33
50	9
51	18
52	12
53	40
54	50
55	72
56	108
57	220
58	58
59	48
60	29
61	999
62	41
63	50
65	11
67	13
68	15
69	38
70	723
71	196
72	15
73	13
74	30
75	444
76	24
77	48
78	4
79	9
81	12
82	11
83	26
84	33
85	28
86	13
87	25
88	581
89	392
90	18
91	18
92	6
93	21
94	5
95	7
96	7
97	14
98	13
99	32
100	35
101	120
102	41
103	53
104	23
105	64
106	9
107	6
109	6
110	4
111	8
112	6
113	13
114	11
115	10
116	27
117	12
118	626
119	46
120	34
121	4
122	10
125	4
128	103
129	11
130	12
131	35
132	9
133	4
134	24
135	7
146	205
147	17
148	18
163	261
164	29
165	16
