Mass Spectrum: 1,3-Cyclohexanedione, 2,2-dimethyl-
Formula: C8H12O2
CAS: 562-13-0
Molecular weight: 140
m/z	intensity
39	313
40	69
41	469
42	516
43	156
44	250
51	16
53	25
54	16
55	766
56	56
57	25
65	16
67	375
68	38
69	156
70	999
71	63
83	31
84	94
85	125
86	6
97	906
98	63
111	31
112	31
140	813
141	63
