Mass Spectrum: .alpha.-D-Mannopyranoside, methyl 2,3-bis-O-(trimethylsilyl)-, cyclic butylboronate
Formula: C17H37BO6Si2
CAS: 56211-09-7
Molecular weight: 404
m/z	intensity
30	49
31	18
36	35
38	28
39	59
41	169
42	102
43	178
44	245
45	192
46	11
47	81
49	29
50	36
51	44
52	63
53	47
54	39
55	89
56	65
57	61
58	50
59	155
60	25
61	44
63	9
65	31
66	22
67	28
69	80
70	37
71	61
72	55
73	999
74	109
75	464
76	49
77	70
78	18
79	72
80	16
81	63
82	34
83	64
84	26
85	42
86	23
87	32
89	82
91	29
92	7
93	85
94	14
95	52
96	34
97	35
98	14
99	98
100	32
101	60
102	12
103	80
104	9
105	33
106	7
109	41
110	12
111	53
112	24
113	51
115	45
116	70
117	90
118	19
119	36
121	7
125	15
126	27
127	48
129	167
130	32
131	126
132	26
133	176
134	45
135	51
137	7
138	16
139	46
140	14
141	51
142	27
143	54
144	7
145	47
146	51
147	345
148	59
149	57
150	13
151	15
152	11
153	31
155	62
156	38
157	67
158	27
159	55
161	13
163	42
164	10
165	30
166	8
167	25
168	11
169	41
171	20
173	90
174	26
175	43
177	13
179	7
180	10
183	42
184	12
185	29
187	15
189	148
190	40
191	64
192	14
193	36
195	26
197	35
199	17
200	11
203	46
204	762
205	156
206	79
207	34
208	9
209	26
210	36
211	27
212	11
213	45
215	20
216	7
217	98
218	113
219	51
220	15
221	18
222	22
223	15
224	26
225	58
226	14
227	15
231	34
240	6
241	17
242	7
243	22
245	18
253	40
254	56
255	18
267	20
269	13
283	24
284	10
285	9
299	21
327	11
329	10
