Mass Spectrum: .beta.-D-Galactopyranoside, methyl 2,6-bis-O-(trimethylsilyl)-, cyclic butylboronate
Formula: C17H37BO6Si2
CAS: 56211-13-3
Molecular weight: 404
m/z	intensity
30	23
31	37
36	34
37	19
38	26
39	66
40	48
41	132
42	53
43	151
44	99
45	218
46	27
47	59
49	23
50	37
51	48
52	66
53	58
54	68
55	239
56	132
57	67
58	39
59	201
60	34
61	53
62	11
63	13
65	25
66	19
67	45
68	39
69	121
70	52
71	55
72	55
73	999
74	179
75	424
76	46
77	59
78	31
79	83
80	28
81	99
82	54
83	110
84	37
85	58
86	16
87	35
88	22
89	216
90	35
91	39
92	18
93	36
94	29
95	35
96	43
97	70
98	29
99	59
100	65
101	256
102	46
103	163
104	36
105	41
106	17
107	18
108	26
109	62
110	51
111	75
112	35
113	62
114	33
115	102
116	117
117	170
118	35
119	46
120	11
121	16
122	24
123	35
125	52
126	45
127	63
128	36
129	229
130	53
131	111
132	35
133	168
134	34
135	32
136	24
137	34
138	49
139	112
140	47
141	46
142	49
143	89
144	30
145	45
146	64
147	390
148	72
149	70
150	26
151	32
152	22
153	41
154	26
155	101
156	155
157	682
158	113
159	89
160	10
161	30
162	12
163	59
164	29
165	38
166	40
167	46
168	44
169	96
170	30
171	50
172	13
173	47
174	32
175	52
176	18
177	40
178	18
179	31
180	34
181	46
182	26
183	55
184	33
185	48
186	18
187	27
188	16
189	103
190	29
191	406
192	79
193	60
194	51
195	48
196	25
197	37
198	39
199	91
200	34
201	25
203	100
204	475
205	110
206	53
207	41
208	48
209	112
210	129
211	40
212	27
213	39
214	11
215	22
216	8
217	220
218	434
219	109
220	49
221	41
222	60
223	90
224	33
225	41
226	27
227	37
228	11
229	11
230	141
231	300
232	70
233	41
234	10
236	14
237	23
238	14
239	30
240	27
241	43
242	18
243	49
244	20
245	37
246	17
249	6
250	6
251	8
252	9
253	37
254	40
255	33
256	14
257	32
265	13
266	36
267	45
268	37
269	37
270	9
271	12
273	52
274	19
275	9
281	8
283	20
284	8
285	11
287	45
288	109
289	41
290	20
291	6
299	17
300	6
301	41
302	7
315	8
327	7
328	10
329	24
357	34
358	8
