Mass Spectrum: (Z)-Ethyl pentadec-9-enoate
Formula: C17H32O2
CAS: 56219-09-1
Molecular weight: 268
m/z	intensity
27	56
28	24
29	197
30	6
31	5
39	87
40	18
41	526
42	95
43	416
44	18
45	81
46	4
51	10
52	8
53	81
54	235
55	622
56	131
57	259
58	14
59	8
60	267
61	328
62	10
65	41
66	33
67	493
68	281
69	448
70	463
71	155
72	9
73	133
74	18
77	43
78	13
79	150
80	94
81	414
82	244
83	356
84	410
85	105
86	12
87	30
88	999
89	109
90	8
91	31
92	9
93	57
94	44
95	247
96	619
97	397
98	251
99	57
100	9
101	386
102	36
105	13
106	7
107	48
108	34
109	200
110	241
111	147
112	55
113	49
114	13
115	68
116	9
119	41
120	12
121	75
122	31
123	191
124	123
125	78
126	25
127	76
128	42
129	50
130	11
133	27
134	24
135	53
136	15
137	89
138	234
139	62
140	13
141	63
142	39
143	40
144	15
147	15
148	13
149	58
150	9
151	57
152	86
153	19
155	71
156	12
157	55
158	7
161	14
162	4
163	8
165	28
166	20
167	9
169	12
171	15
172	6
175	6
177	7
178	47
179	29
180	343
181	56
182	5
183	5
185	18
186	11
193	15
194	19
195	7
199	11
203	8
204	21
205	104
206	16
207	9
213	43
214	9
221	4
222	204
223	80
224	11
225	17
226	3
227	27
228	5
239	4
241	9
250	2
268	48
269	9
270	14
271	2
