Mass Spectrum: .beta.-D-Galactopyranoside, methyl 2,3-bis-O-(trimethylsilyl)-, cyclic butylboronate
Formula: C17H37BO6Si2
CAS: 56211-10-0
Molecular weight: 404
m/z	intensity
30	25
31	56
33	26
36	20
37	11
38	20
39	91
40	41
41	237
42	60
43	282
44	124
45	596
46	40
47	89
48	20
49	18
50	30
51	34
52	46
53	77
54	56
55	273
56	89
57	101
58	49
59	321
60	39
61	95
62	9
63	18
65	29
66	27
67	46
68	51
69	182
70	48
71	126
72	67
73	999
74	340
75	599
76	46
77	89
78	30
79	59
80	26
81	146
82	56
83	141
84	48
85	93
86	29
87	43
88	24
89	390
90	42
91	43
92	12
93	30
94	25
95	38
96	41
97	76
98	62
99	80
100	38
101	226
102	42
103	192
104	35
105	46
107	26
108	25
109	59
110	43
111	95
112	36
113	61
114	29
115	75
116	492
117	318
118	54
119	71
120	6
121	16
122	17
123	26
124	32
125	50
126	47
127	135
128	37
129	363
130	52
131	244
132	48
133	994
134	294
135	127
136	27
137	31
138	35
139	83
140	45
141	53
142	50
143	178
144	39
145	69
146	122
147	676
148	122
149	119
150	25
151	30
152	28
153	41
154	19
155	155
156	69
157	193
158	41
159	85
160	23
161	33
162	17
163	57
164	32
165	41
166	55
167	49
168	37
169	115
170	41
171	139
172	39
173	104
174	29
175	54
176	21
177	52
178	22
179	28
180	30
181	47
182	30
183	63
184	27
185	35
186	22
187	31
188	23
189	425
190	107
191	157
192	38
193	46
194	35
195	38
196	19
197	37
198	26
199	36
200	18
201	28
202	15
203	38
204	926
205	309
206	138
207	76
208	38
209	64
210	94
211	34
212	37
213	66
214	27
215	42
216	15
217	319
218	109
219	45
220	23
221	339
222	100
223	75
224	39
225	65
226	32
227	51
228	23
229	18
230	33
231	66
232	29
233	52
234	15
235	14
236	11
237	15
238	12
239	34
240	27
241	44
242	23
243	67
244	27
245	42
246	14
249	10
252	14
253	47
254	93
255	66
256	30
257	36
258	13
259	21
265	18
266	37
267	55
268	30
269	25
271	6
273	23
277	21
281	11
282	26
283	58
284	28
285	26
286	8
287	24
288	19
289	6
298	17
299	39
300	26
301	40
302	20
303	9
315	15
316	5
328	20
329	40
330	20
331	7
341	17
342	34
343	20
344	9
357	33
358	10
359	7
373	7
389	9
