Mass Spectrum: 5-(p-Acetylaminophenylsulfonyl)dihydro-1,3,5-dioxazine
Formula: C11H14N2O5S
CAS: 56221-11-5
Molecular weight: 286
m/z	intensity
27	30
28	220
29	150
30	160
31	180
38	30
39	120
41	60
42	850
43	999
44	50
45	60
46	30
50	30
51	30
52	30
58	40
63	100
64	140
65	420
66	50
76	70
77	20
79	20
88	90
90	50
91	200
92	440
93	570
94	40
104	20
105	20
106	30
108	330
109	30
119	50
133	30
134	580
135	460
136	50
140	120
148	30
150	30
155	40
156	540
157	150
158	40
182	20
184	60
196	30
198	780
199	130
200	50
226	20
227	40
244	190
245	20
255	20
285	20
286	710
287	100
288	40
