Mass Spectrum: 2-Deoxypentofuranose, 3TMS derivative
Formula: C14H34O4Si3
CAS: 56227-33-9
Molecular weight: 350
m/z	intensity
25	1
26	11
27	50
28	15
29	39
30	5
31	16
32	1
34	0
36	1
37	3
38	4
39	27
40	2
41	15
42	14
43	83
44	40
45	279
46	17
47	134
48	5
49	4
50	5
51	13
52	12
53	63
54	13
55	33
56	17
57	13
58	21
59	129
60	20
61	41
62	3
63	2
64	0
65	2
66	10
67	3
68	5
69	13
70	5
71	8
72	29
73	999
74	86
75	673
76	42
77	28
78	1
79	1
80	2
81	213
82	13
83	4
84	0
85	13
86	2
87	8
88	3
89	14
90	3
91	1
93	0
94	0
95	4
96	2
97	2
98	2
99	14
100	2
101	66
102	8
103	225
104	19
105	13
106	1
107	1
109	1
111	15
112	2
113	24
114	4
115	10
116	12
117	28
118	3
119	7
120	0
125	9
126	1
127	10
128	4
129	241
130	27
131	59
132	6
133	65
134	8
135	7
136	0
139	1
141	1
142	34
143	11
144	2
145	14
146	2
147	214
148	34
149	35
150	4
151	2
152	0
153	0
154	0
155	108
156	15
157	86
158	11
159	7
160	0
161	1
163	12
164	1
167	0
169	9
170	25
171	7
172	1
173	1
174	1
175	11
176	1
177	24
178	3
179	1
185	0
187	0
189	34
190	6
191	101
192	16
193	7
203	18
204	5
205	4
206	0
207	1
215	2
216	2
217	46
218	137
219	40
220	13
221	2
230	1
231	4
232	1
243	0
245	18
246	4
247	59
248	11
249	6
250	0
259	0
260	3
261	0
349	0
