Mass Spectrum: .alpha.-D-Galactopyranoside, methyl 2-(acetylamino)-2-deoxy-3,6-di-O-methyl-, TMS derivative
Formula: C14H29NO6Si
CAS: 56227-35-1
Molecular weight: 335
m/z	intensity
43	110
44	17
45	162
47	11
51	12
55	14
56	25
58	49
59	72
60	12
61	19
69	173
70	19
71	23
72	35
73	805
74	69
75	299
76	18
79	14
80	50
81	15
82	11
83	11
84	21
85	27
86	70
87	16
89	193
90	21
91	16
96	14
98	57
99	24
100	15
101	36
102	22
103	22
105	13
108	13
110	14
111	18
112	25
113	17
114	25
115	999
116	129
117	45
118	15
119	46
122	41
126	19
128	72
129	97
130	19
131	85
132	14
133	33
138	14
140	37
141	16
142	14
143	12
144	45
145	30
146	150
147	49
148	16
153	11
154	24
155	15
156	27
157	12
158	20
159	58
160	78
161	14
168	103
169	78
170	26
172	17
173	20
174	13
181	30
182	23
185	21
186	445
187	72
188	55
189	37
198	15
200	36
201	63
202	32
213	15
214	23
219	13
228	13
229	11
230	23
231	16
243	14
247	11
261	60
272	29
