Mass Spectrum: 5-(p-Chlorophenylsulphonyl)dihydro-1,3,5-dioxazine
Formula: C9H10ClNO4S
CAS: 56221-09-1
Molecular weight: 263
m/z	intensity
27	20
28	25
29	160
30	200
31	120
41	30
42	999
43	30
44	40
50	140
51	90
58	270
74	60
75	340
76	90
77	50
85	40
87	40
88	80
111	790
112	200
113	270
114	60
128	20
159	30
175	560
176	60
177	210
178	20
203	40
204	140
205	50
206	50
232	50
234	20
262	60
263	70
264	30
265	20
