Mass Spectrum: 5-(p-Tolylsulfonyl)dihydro-1,3,5-dioxazine
Formula: C10H13NO4S
CAS: 56221-08-0
Molecular weight: 243
m/z	intensity
28	120
29	130
30	190
31	60
39	100
41	40
42	720
43	20
44	30
50	20
51	40
58	190
63	60
64	40
65	210
87	30
88	200
89	60
90	40
91	999
92	260
93	20
139	20
155	490
156	70
157	30
184	100
185	40
212	50
242	50
243	100
