Mass Spectrum: 4,7-Methanoisobenzofuran-1(3H)-one, 3a,4,7,7a-tetrahydro-3-hydroxy-
Formula: C9H10O3
CAS: 56232-16-7
Molecular weight: 166
m/z	intensity
26	42
27	56
29	64
30	3
31	4
37	15
38	42
39	208
40	55
41	19
44	0
45	25
46	5
47	2
48	1
49	3
50	30
51	60
52	26
53	32
54	8
55	93
57	4
59	2
60	26
61	5
62	22
63	54
64	16
65	218
66	999
67	115
68	25
69	3
71	10
72	11
73	3
74	3
75	1
77	94
78	59
79	89
80	37
81	15
82	9
83	41
84	13
85	1
86	2
87	0
89	15
90	6
91	358
92	155
93	146
94	29
95	10
96	3
97	22
98	1
99	46
100	43
101	45
102	8
103	44
104	33
105	12
106	5
107	10
108	0
109	3
110	5
118	2
119	62
120	98
121	64
122	66
123	8
131	2
133	0
137	64
138	103
139	8
147	1
148	95
149	13
150	0
165	3
166	9
167	10
168	1
