Mass Spectrum: Pregn-20-en-11-ol, 3,20,21-tris[(trimethylsilyl)oxy]-, (3.alpha.,5.beta.,11.beta.)-
Formula: C30H58O4Si3
CAS: 56248-33-0
Molecular weight: 566
m/z	intensity
73	999
74	84
75	261
76	56
77	98
78	129
145	47
146	92
147	264
148	68
149	57
151	55
152	38
153	37
230	304
231	153
232	86
476	35
477	25
549	32
551	53
552	25
566	739
567	399
568	184
