Mass Spectrum: Pregn-4-ene-3,20-dione, 6,16-dimethyl-
Formula: C23H34O2
CAS: 56246-45-8
Molecular weight: 342
m/z	intensity
43	999
45	25
53	72
55	257
57	20
65	28
66	12
67	191
68	20
69	126
71	7
77	86
78	14
79	146
80	21
81	141
82	32
83	101
85	267
86	15
91	188
92	32
93	197
94	33
95	153
96	24
97	40
98	109
99	51
103	9
105	168
106	40
107	186
108	56
109	207
110	58
111	35
115	19
116	10
117	35
118	13
119	130
120	34
121	172
122	43
123	188
124	25
128	15
129	21
130	9
131	53
132	13
133	84
134	34
135	106
136	126
137	307
138	405
143	22
144	8
145	63
146	23
147	119
148	46
149	102
150	56
151	38
152	8
155	10
157	23
159	55
160	17
161	111
162	35
163	86
164	12
169	14
171	19
173	75
174	23
175	58
176	12
177	33
183	11
185	17
187	51
188	27
189	31
190	15
191	24
199	18
201	42
203	14
204	10
205	39
206	7
211	9
213	8
215	40
216	12
218	9
219	10
220	16
225	13
227	8
229	22
230	8
231	8
232	8
239	10
241	7
243	72
244	42
245	57
246	9
257	133
258	235
259	48
260	27
269	7
271	18
272	8
273	90
274	14
281	21
282	8
283	13
284	37
285	31
286	11
297	21
298	14
299	91
300	229
301	46
309	17
313	23
314	19
324	42
327	246
328	44
332	7
342	711
343	194
