Mass Spectrum: Acetamide, N-(2-ethoxy-3,6-dihydro-6-methyl-2H-pyran-3-yl)-
Formula: C10H17NO3
CAS: 56248-08-9
Molecular weight: 199
m/z	intensity
41	44
42	23
43	248
44	244
45	61
46	13
65	10
66	13
67	74
68	27
69	30
70	34
80	13
81	17
82	544
83	999
84	122
108	78
124	17
125	496
126	44
153	27
154	20
