Mass Spectrum: Silane, [[3,5-dichloro-1-(1-chloroheptyl)-1,2,14-tetradecanetriyl]tris(oxy)]tris[trimethyl-
Formula: C30H65Cl3O3Si3
CAS: 56248-45-4
Molecular weight: 662
m/z	intensity
72	20
73	999
74	92
75	192
91	69
93	122
94	20
95	182
96	18
97	49
99	12
101	24
103	192
104	18
105	30
121	41
123	32
125	12
127	73
129	741
130	102
131	55
147	129
148	26
149	57
150	20
151	28
184	10
185	135
186	26
187	41
199	116
200	430
201	102
202	26
203	10
235	278
236	55
237	118
238	28
239	12
301	24
302	8
303	24
337	59
338	14
339	34
340	6
356	487
357	163
358	65
359	14
427	8
428	6
429	8
430	6
449	12
450	4
451	10
493	46
494	20
495	23
496	9
501	7
502	2
503	9
504	3
505	3
529	3
530	1
531	1
575	9
576	5
577	7
578	2
579	1
611	3
612	1
613	3
614	1
615	1
647	9
648	4
649	11
650	5
651	5
652	2
653	1
