Mass Spectrum: 2-Cyclohexen-1-one, 3-[(acetyloxy)methyl]-6-(1-methylethyl)-
Formula: C12H18O3
CAS: 56248-42-1
Molecular weight: 210
m/z	intensity
39	120
41	200
42	30
43	529
52	20
53	60
55	70
67	40
69	50
78	40
80	30
81	40
82	20
91	30
95	40
97	20
99	50
107	190
108	999
122	30
135	110
150	40
153	20
168	210
182	20
210	30
