Mass Spectrum: D-Xylose, O-2,3,4-tri-O-methyl-.beta.-D-xylopyranosyl-(1.fwdarw.3)-O-2,4-di-O-methyl-.beta.-D-xylopyranosyl-(1.fwdarw.4)-2,3,5-tri-O-methyl-
Formula: C23H42O13
CAS: 56248-58-9
Molecular weight: 526
m/z	intensity
45	430
71	460
75	679
88	649
89	80
99	270
101	999
111	250
115	729
127	10
143	629
145	150
175	430
235	40
271	10
303	26
305	4
331	1
335	16
347	2
395	28
