Mass Spectrum: d-Mannose, O-2,3,4,6-tetra-O-methyl-.beta.-d-mannopyranosyl-(1.fwdarw.4)-O-2,3,6-tri-O-methyl-.beta.-d-mannopyranosyl-(1.fwdarw.4)-2,3,5,6-tetra-O-methyl-
Formula: C29H54O16
CAS: 56248-56-7
Molecular weight: 658
m/z	intensity
45	390
71	210
75	310
88	999
89	110
99	70
101	310
111	210
115	110
127	130
143	60
145	70
155	170
159	20
187	420
201	10
219	370
279	140
303	2
305	6
331	3
335	2
349	3
359	11
391	35
423	15
483	2
