Mass Spectrum: D-Glycero-.beta.-D-galacto-2-Nonulopyranosidonic acid, methyl 5-amino-3,5-dideoxy-4,7,8,9-tetrakis-O-(trimethylsilyl)-, trimethylsilyl ester
Formula: C25H59NO8Si5
CAS: 56247-31-5
Molecular weight: 641
m/z	intensity
43	25
44	25
45	34
55	13
56	17
57	24
59	23
70	17
73	999
74	100
75	104
85	19
89	40
98	16
100	13
101	19
103	171
104	11
105	15
113	18
114	19
115	41
116	35
117	83
118	27
126	24
128	34
129	56
130	49
131	383
132	55
133	102
134	12
142	14
143	45
144	203
145	41
146	19
147	183
148	28
149	16
156	39
157	26
158	16
159	195
160	82
161	21
168	50
169	16
170	46
172	21
173	96
175	15
184	18
185	85
186	28
187	36
189	106
190	18
191	30
203	25
204	138
205	119
206	33
207	11
214	50
215	18
216	39
217	584
218	160
219	63
220	37
221	12
230	19
231	25
232	29
244	25
245	16
246	69
247	27
256	19
258	113
259	58
260	18
272	11
274	31
275	75
276	13
287	31
288	34
300	16
346	60
364	34
365	13
377	33
378	350
379	86
380	31
403	14
434	17
493	16
524	22
568	41
