Mass Spectrum: 1H-Imidazole-2-carboxaldehyde, 4-phenyl-
Formula: C10H8N2O
CAS: 56248-10-3
Molecular weight: 172
m/z	intensity
50	210
51	310
52	100
62	50
63	400
64	120
74	60
75	80
76	170
77	210
88	80
89	710
90	520
91	50
102	999
103	160
104	100
116	250
117	180
143	140
144	60
172	600
173	60
