Mass Spectrum: Cholestane-1,3-dione, cyclic 3-(1,2-ethanediyl acetal), (5.beta.)-
Formula: C29H48O3
CAS: 56247-67-7
Molecular weight: 444
m/z	intensity
68	204
69	45
70	310
71	49
72	137
73	151
74	123
75	42
77	67
78	17
79	219
80	42
81	385
82	70
83	134
84	10
85	445
86	777
87	989
88	42
91	169
92	45
93	254
94	60
95	303
96	42
97	74
98	35
99	982
100	35
101	24
105	257
106	56
107	254
108	74
109	176
110	42
111	49
112	197
113	999
114	35
115	268
116	14
117	35
118	7
119	120
120	60
121	141
122	63
123	102
124	24
125	522
126	56
127	35
128	56
129	127
130	21
131	106
132	21
133	95
134	35
135	81
136	42
137	28
138	67
139	42
142	49
143	60
144	24
145	102
146	63
147	127
148	28
149	63
151	60
152	28
153	24
199	35
200	60
201	91
202	7
203	67
245	74
246	106
247	60
400	106
401	91
402	7
444	607
445	197
446	42
