Mass Spectrum: 2H-Pyran-2-methanol, 3-(benzoyloxy)-3,6-dihydro-6-methoxy-, benzoate
Formula: C21H20O6
CAS: 56248-18-1
Molecular weight: 368
m/z	intensity
40	17
41	44
42	17
43	34
44	187
45	27
75	10
76	20
77	554
78	54
105	999
106	61
122	91
123	17
124	17
204	54
