Mass Spectrum: 2-Butenoic acid, 2-methyl-, 1a,2,4,4a,5,9-hexahydro-4,4a,6-trimethyl-3H-oxireno[8,8a]naphtho[2,3-b]furan-5-yl ester
Formula: C20H26O4
CAS: 56246-42-5
Molecular weight: 330
m/z	intensity
31	43
39	165
40	26
41	321
42	43
43	321
45	43
51	34
52	17
53	113
55	686
63	8
65	43
67	86
69	69
71	43
77	69
79	78
81	78
83	999
85	43
91	95
93	43
95	69
105	43
107	60
108	43
109	86
115	34
117	26
119	26
123	86
126	43
145	52
147	26
159	52
161	43
162	52
173	60
174	52
188	104
201	121
213	43
215	17
230	165
330	8
