Mass Spectrum: Naphthalene, decahydro-1,6-dimethyl-3-octyl-
Formula: C20H38
CAS: 56248-64-7
Molecular weight: 278
m/z	intensity
14	10
15	26
16	3
25	2
26	13
27	212
28	92
29	483
30	12
37	3
38	3
39	118
40	29
41	748
42	109
51	9
52	8
53	107
54	65
55	844
56	79
57	161
58	10
63	3
64	4
65	28
66	29
67	440
68	158
69	434
70	39
71	47
72	4
77	55
78	24
79	136
80	51
81	673
82	261
83	387
84	33
85	25
86	3
87	3
90	3
91	67
92	14
93	80
94	50
95	595
96	136
97	176
98	16
99	4
103	5
104	6
105	22
106	8
107	55
108	53
109	999
110	186
111	64
112	6
115	13
116	2
117	5
119	6
120	3
121	25
122	43
123	200
124	80
125	23
126	2
128	2
129	2
131	2
133	3
135	19
136	12
137	33
138	9
139	5
141	2
143	2
145	2
147	1
149	23
150	7
151	18
152	14
153	4
154	2
158	2
163	13
164	102
165	748
166	113
167	10
177	3
178	5
179	13
180	53
181	10
192	26
193	280
194	53
195	5
207	4
220	4
221	31
222	65
223	12
235	4
236	20
237	4
249	10
250	4
263	27
264	6
276	2
277	3
278	434
279	96
280	10
