Mass Spectrum: 1,2,4-Thiadiazole-5-carbohydrazonic acid, 3-methyl-, ethyl ester
Formula: C6H10N4OS
CAS: 56247-55-3
Molecular weight: 186
m/z	intensity
40	150
41	250
42	999
43	220
44	90
45	130
46	350
47	170
59	140
60	250
67	160
71	100
72	180
73	999
74	300
75	60
76	70
89	100
91	170
92	120
115	719
116	70
117	170
129	140
130	140
141	569
157	70
186	60
187	30
