Mass Spectrum: Hexanedioic acid, 5-[bis(trimethylsilyl)amino]-2-[[bis(trimethylsilyl)amino]methyl]-2-[(trimethylsilyl)oxy]-
Formula: C22H54N2O5Si5
CAS: 56247-64-4
Molecular weight: 566
m/z	intensity
68	4
69	4
70	2
71	4
72	12
73	81
74	12
75	57
76	2
77	12
79	4
81	55
82	12
83	2
100	12
102	999
103	104
104	51
147	77
148	16
149	20
197	16
198	12
216	42
217	42
218	53
219	87
220	18
221	16
288	85
289	20
290	12
348	100
349	57
350	20
359	30
360	49
361	16
362	12
363	28
450	16
465	108
466	51
467	26
551	3
552	1
553	1
566	2
567	1
568	1
