Mass Spectrum: D-Glucopyranoside, methyl 3-O-methyl-
Formula: C8H16O6
CAS: 56248-44-3
Molecular weight: 208
m/z	intensity
41	108
42	64
43	189
45	318
55	52
56	72
57	161
58	64
59	149
60	48
61	161
69	84
71	185
73	189
74	999
75	685
85	72
87	500
88	56
101	72
103	28
115	72
116	693
117	116
143	237
144	145
146	145
159	48
177	36
