Mass Spectrum: 2H-Pyran-2,3,5-triol, 5,6-dihydro-, triacetate
Formula: C11H14O7
CAS: 56248-06-7
Molecular weight: 258
m/z	intensity
41	48
42	17
43	615
44	17
45	6
58	13
59	3
60	6
68	999
69	155
70	20
84	10
85	795
86	162
87	10
97	193
98	31
99	24
127	10
128	69
139	34
156	297
157	93
158	6
170	62
171	6
199	20
216	17
