Mass Spectrum: .alpha.-D-Mannopyranose, 1-O-(trimethylsilyl)-, cyclic 2,3:4,6-bis(methylboronate)
Formula: C11H22B2O6Si
CAS: 56246-46-9
Molecular weight: 300
m/z	intensity
30	22
31	37
33	7
35	20
36	42
37	11
38	27
39	60
40	38
41	92
42	63
43	205
44	206
45	157
46	36
47	124
48	22
49	19
50	27
51	28
52	22
53	46
55	66
56	57
57	100
58	37
59	70
60	19
61	19
64	22
65	12
66	22
67	28
68	43
69	65
70	34
71	32
72	48
73	595
74	52
75	716
76	57
77	64
78	36
79	15
80	20
81	49
82	23
83	43
84	164
85	319
86	38
87	26
89	33
90	9
91	15
93	58
95	32
96	310
97	999
98	130
99	46
100	8
101	86
102	24
103	339
104	44
105	40
107	11
108	20
109	52
110	140
111	76
112	37
113	24
114	25
115	70
116	63
117	123
118	34
119	60
120	13
121	14
122	26
123	18
124	29
125	62
126	36
127	32
128	22
129	971
130	88
131	91
132	31
133	15
135	10
137	16
138	10
139	39
140	47
141	28
142	30
143	39
144	13
145	39
146	10
147	47
148	22
149	27
150	18
151	32
152	24
153	27
156	22
157	35
158	12
159	24
165	18
166	38
167	71
168	25
169	30
170	157
171	671
172	71
173	41
178	11
179	15
180	15
181	46
182	50
183	38
184	30
185	73
186	92
187	38
188	15
189	15
191	8
193	28
194	11
198	12
199	25
200	9
201	25
202	9
206	10
207	15
210	14
212	19
213	24
214	45
215	192
216	39
217	20
224	12
225	24
243	16
244	9
254	12
267	12
271	8
283	10
284	19
285	17
