Mass Spectrum: Decanoic acid, 5-ethyl-3,5,9-trimethyl-, methyl ester
Formula: C16H32O2
CAS: 56247-63-3
Molecular weight: 256
m/z	intensity
15	129
27	157
28	22
29	348
30	11
31	13
32	10
33	4
39	132
41	723
42	135
43	864
44	26
45	20
51	7
52	5
53	69
54	23
55	779
56	122
57	999
58	58
59	260
60	10
61	4
63	1
64	1
65	14
66	4
67	79
68	17
69	549
70	194
71	747
72	47
73	175
74	552
75	44
76	2
77	19
78	2
79	20
80	4
81	102
82	41
83	302
84	47
85	558
86	52
87	26
88	2
89	2
90	122
91	5
92	5
93	16
94	4
95	91
96	76
97	785
98	82
99	150
100	17
101	117
102	13
103	1
107	23
108	2
109	47
110	19
111	275
112	52
113	38
114	1
115	130
116	360
117	57
118	8
119	1
121	48
122	8
123	26
124	8
125	57
126	11
127	17
128	5
129	26
130	1
135	20
136	2
137	29
138	36
139	455
140	360
141	239
142	29
143	26
144	2
147	4
149	8
151	17
152	8
153	120
154	19
155	7
156	7
157	17
158	2
161	8
167	27
168	8
169	2
170	30
171	685
172	101
173	14
174	5
176	4
177	170
178	26
179	7
181	2
182	1
183	2
185	2
191	25
192	5
194	1
195	129
196	22
197	1
199	5
207	10
208	1
209	26
210	2
225	94
226	30
227	433
228	85
229	17
241	35
242	8
255	1
256	1
