Mass Spectrum: Piperazine, 1-methyl-4-(1-oxooctadecyl)-
Formula: C23H46N2O
CAS: 56252-83-6
Molecular weight: 366
m/z	intensity
26	2
27	14
28	9
29	42
30	8
31	0
39	8
40	2
41	78
42	46
43	183
44	75
45	4
46	1
50	0
51	0
52	0
53	4
54	7
55	81
56	102
57	154
58	519
59	26
60	2
61	0
63	0
64	0
65	1
66	0
67	12
68	8
69	52
70	999
71	117
72	28
73	5
74	0
75	0
76	0
77	2
78	1
79	3
80	2
81	12
82	17
83	458
84	60
85	75
86	8
87	6
88	0
89	0
91	3
92	0
93	2
94	2
95	12
96	8
97	36
98	82
99	205
100	26
101	148
103	1
104	0
105	2
106	0
107	1
108	1
109	5
110	4
111	9
112	26
113	10
114	3
115	3
116	0
117	0
118	0
119	1
120	0
121	2
122	1
123	3
124	2
125	4
126	14
127	25
128	7
129	2
130	1
131	0
132	0
133	1
134	0
135	1
136	0
137	2
138	2
139	2
140	7
141	8
142	60
143	6
144	0
145	1
146	0
147	0
148	0
149	12
150	1
151	1
152	1
153	2
154	6
155	47
156	7
157	4
158	0
159	0
160	0
161	0
162	0
163	0
164	0
165	1
166	1
167	1
168	5
169	12
170	3
177	1
178	0
179	0
180	1
181	1
182	4
183	8
184	2
185	0
187	0
189	0
191	1
192	0
193	0
194	1
195	1
196	3
197	10
198	3
199	0
203	1
204	0
205	2
206	0
207	0
208	0
209	0
210	3
211	9
212	2
213	0
216	0
217	0
218	0
220	0
221	0
222	0
223	1
224	3
225	8
226	2
227	0
228	0
229	0
236	0
237	0
238	3
239	8
240	2
241	0
250	0
251	0
252	3
253	7
254	2
255	0
256	0
264	0
265	0
266	3
267	10
268	3
269	0
270	0
277	0
278	0
279	0
280	3
281	7
282	3
283	0
284	0
285	0
291	0
292	0
293	0
294	3
295	7
296	2
297	0
298	3
299	0
306	0
307	0
308	2
309	9
310	10
311	2
312	0
320	0
321	0
322	2
323	6
324	4
325	1
326	0
335	0
336	1
337	6
338	5
339	1
349	0
350	0
351	17
352	4
353	0
364	18
365	13
366	49
367	13
368	2
369	0
