Mass Spectrum: 2-Piperazinone
Formula: C4H8N2O
CAS: 5625-67-2
Molecular weight: 100
m/z	intensity
29	99
30	46
35	2
38	13
39	18
40	69
41	131
42	589
43	999
44	188
45	47
51	4
52	5
53	2
54	18
55	33
56	83
57	91
58	6
70	14
71	334
72	150
73	11
83	7
100	801
101	42
102	8
