Mass Spectrum: 1,2-Hexanediol, 2-methyl-
Formula: C7H16O2
CAS: 56255-50-6
Molecular weight: 132
m/z	intensity
25	0
26	14
27	226
28	29
29	284
30	58
31	157
33	1
35	1
37	3
38	8
39	137
40	21
41	357
42	45
43	427
44	23
45	578
46	15
47	12
48	0
49	1
50	6
51	14
52	6
53	34
54	10
55	393
56	49
57	456
58	105
59	212
60	17
61	10
62	1
63	3
64	2
65	7
66	3
67	12
68	6
69	29
70	14
71	78
72	69
73	22
74	32
75	698
76	30
77	10
78	2
79	6
80	2
81	57
82	7
83	221
84	32
85	11
86	5
87	31
88	4
89	3
90	0
91	5
92	1
93	2
94	1
95	6
96	3
97	11
98	5
99	6
100	5
101	999
102	85
103	5
104	1
113	3
114	91
115	12
116	4
117	76
118	6
131	3
132	1
133	1
