Mass Spectrum: 1,3-Dioxolane, 2,2-dimethyl-4-[[[2-(2-propenyloxy)hexadecyl]oxy]methyl]-
Formula: C25H48O4
CAS: 56256-32-7
Molecular weight: 412
m/z	intensity
41	340
57	999
99	190
101	750
133	270
157	140
208	40
209	20
215	50
227	10
267	996
355	240
397	280
412	20
