Mass Spectrum: Cyclopropane, 1-(1-methylethyl)-2-(2-methyl-1-methylenepropyl)-
Formula: C11H20
CAS: 56259-17-7
Molecular weight: 152
m/z	intensity
39	100
40	20
41	270
42	20
43	190
51	20
52	10
53	90
54	60
55	190
56	60
57	30
65	20
66	10
67	230
68	60
69	120
70	20
77	40
78	10
79	60
80	20
81	999
82	120
83	60
91	30
93	30
94	10
95	140
96	460
97	60
107	10
108	10
109	380
123	10
137	80
138	10
152	80
153	10
