Mass Spectrum: N-p-Methoxyphenyl-N'-(1-nitro-1-methyl-ethyl)diazene
Formula: C10H13N3O3
CAS: 56254-33-2
Molecular weight: 223
m/z	intensity
30	159
38	38
39	109
46	416
50	49
51	59
52	61
63	60
64	118
65	100
77	388
78	170
79	60
91	60
92	301
93	70
94	49
95	99
106	69
107	999
108	128
109	50
148	80
155	59
157	60
176	49
177	589
178	289
183	50
185	49
223	40
