Mass Spectrum: 5,8,10-Undecatrien-3-ol
Formula: C11H18O
CAS: 56255-81-3
Molecular weight: 166
m/z	intensity
25	2
26	44
27	512
28	20
29	410
30	15
31	929
33	2
34	0
35	0
36	0
37	10
38	37
39	587
40	84
41	999
42	54
43	122
44	16
45	12
46	1
48	1
49	3
50	59
51	148
52	78
53	178
54	225
55	190
56	12
57	225
58	16
59	987
60	33
61	5
62	13
63	43
64	9
65	188
66	197
67	431
68	34
69	30
70	26
71	11
72	4
73	1
74	8
75	8
76	6
77	359
78	252
79	897
80	181
81	61
82	34
83	40
84	4
85	24
86	3
87	1
88	1
89	9
90	8
91	658
92	234
93	397
94	364
95	58
96	8
97	5
98	19
99	4
100	0
101	1
102	4
103	23
104	17
105	336
106	115
107	46
108	2
109	65
110	10
111	25
112	5
113	1
115	5
116	0
117	18
118	4
119	182
120	31
121	2
123	4
124	11
125	5
126	0
127	1
128	0
131	0
133	21
134	1
135	0
137	22
138	2
139	0
147	1
148	48
149	5
151	4
157	0
160	0
165	0
166	4
