Mass Spectrum: Cyclopropanemethanol, .alpha.,2-bis(1-methylethyl)-
Formula: C10H20O
CAS: 56259-16-6
Molecular weight: 156
m/z	intensity
40	10
41	230
42	10
43	180
45	10
53	30
54	10
55	190
56	70
57	999
58	30
59	20
65	10
67	110
68	20
69	120
70	10
71	140
72	10
73	40
77	10
79	10
81	60
82	130
83	40
84	20
85	20
86	40
93	10
95	480
96	40
113	240
114	20
123	20
138	30
