Mass Spectrum: 1-Benzoyl-3-phenyl-5-(.alpha.-hydroxybenzylidene)-1,3-cyclopentadiene
Formula: C25H18O2
CAS: 56264-95-0
Molecular weight: 350
m/z	intensity
29	17
39	7
40	31
41	2
43	1
44	1
49	5
50	5
51	48
62	1
63	7
64	1
76	7
77	359
78	35
84	1
86	2
87	1
88	2
89	4
91	4
105	999
106	85
115	20
116	2
122	9
136	9
138	1
139	65
140	21
141	1
151	2
152	1
165	2
168	2
175	9
176	1
189	9
195	30
196	7
202	11
203	2
211	1
212	2
213	11
214	5
215	62
216	28
217	32
218	11
226	4
227	1
228	2
244	7
245	11
246	2
271	46
272	58
273	29
274	4
349	6
350	469
351	259
352	68
353	4
