Mass Spectrum: Benzene, 1,4,8-decatrienyl-, (E,E,E)-
Formula: C16H20
CAS: 56265-14-6
Molecular weight: 212
m/z	intensity
26	5
27	116
28	8
29	132
30	3
31	0
37	1
38	6
39	142
40	14
41	99
42	5
43	5
50	17
51	67
52	19
53	54
54	9
55	141
56	6
57	1
58	0
61	1
62	5
63	31
64	8
65	71
66	17
67	23
68	5
69	6
70	1
71	0
73	0
74	5
75	10
76	17
77	122
78	41
79	110
80	17
81	15
82	3
83	1
84	0
85	0
86	1
87	3
88	2
89	27
91	999
92	87
93	50
94	11
95	17
96	1
97	0
98	0
99	0
100	0
101	4
102	31
103	23
104	24
105	12
106	2
107	4
108	20
109	2
110	1
111	0
112	0
113	3
115	432
116	76
117	72
118	11
119	3
120	6
121	68
122	6
123	1
124	0
125	0
126	6
127	45
128	183
129	299
130	125
131	18
132	3
133	2
134	3
135	0
136	0
137	0
138	0
139	6
141	99
142	74
143	60
144	33
145	6
146	0
147	0
150	1
151	3
152	13
153	17
154	9
155	55
156	139
157	108
158	14
159	1
163	0
164	0
165	4
166	1
167	2
168	1
169	25
170	10
171	5
172	0
176	0
177	0
178	1
179	0
181	0
182	0
183	10
184	3
185	0
189	0
191	0
197	5
198	1
209	0
210	0
212	50
213	10
214	2
