Mass Spectrum: L-Leucine, N-[N-(N-acetyl-L-alanyl)-L-tryptophyl]-
Formula: C22H30N4O5
CAS: 56272-48-1
Molecular weight: 430
m/z	intensity
26	12
27	60
28	212
29	64
30	50
31	4
38	14
39	50
40	10
41	86
42	206
43	242
44	545
45	42
50	10
51	24
52	14
53	12
54	36
55	44
56	30
57	20
59	34
60	22
62	6
63	30
64	6
65	20
67	6
68	30
69	44
70	30
71	14
72	14
73	14
74	12
75	6
76	6
77	52
78	10
79	10
80	10
81	66
82	60
83	12
84	16
85	14
86	151
87	36
88	10
89	60
90	101
91	117
92	6
94	6
95	90
96	42
97	12
98	4
99	6
100	4
101	6
102	20
103	26
104	10
107	6
108	22
109	12
110	10
111	24
112	50
113	24
114	24
115	30
116	20
117	222
118	20
122	22
123	12
124	10
125	10
126	10
128	30
129	40
130	999
131	107
132	6
140	4
141	6
142	16
143	56
144	14
155	12
156	12
157	6
158	8
159	20
167	14
168	30
169	54
170	111
171	46
172	10
179	36
180	6
181	6
182	6
183	8
184	4
185	12
186	16
187	34
188	24
189	10
197	10
198	16
223	12
236	12
237	24
238	32
239	125
240	24
241	6
244	105
245	24
246	6
252	24
253	40
254	30
255	10
256	135
257	133
258	16
265	36
266	20
267	10
271	26
272	42
273	4
281	16
282	40
283	191
284	111
285	20
286	4
296	4
297	16
298	16
299	226
300	333
301	60
302	16
310	191
311	40
317	20
318	6
350	4
351	4
352	12
353	20
354	24
355	10
367	34
368	6
369	6
394	20
395	6
396	8
412	40
413	10
430	56
431	8
