Mass Spectrum: Glucaric acid, 2,3,5-tris-O-(trimethylsilyl)-, .gamma.-lactone, 6-(trimethylsilyl) ester
Formula: C18H40O7Si4
CAS: 56272-60-7
Molecular weight: 480
m/z	intensity
55	10
59	14
61	3
72	13
73	999
74	79
75	62
76	3
83	4
93	3
95	5
99	3
101	5
102	27
103	57
104	6
113	7
115	3
116	4
117	11
119	6
127	8
129	38
130	32
131	25
132	5
133	60
134	9
135	6
141	4
143	68
144	7
145	6
147	344
148	55
149	42
150	4
157	6
161	4
169	10
171	3
173	3
175	3
177	16
187	4
189	77
190	18
191	43
192	8
193	9
201	8
203	6
204	163
205	42
206	16
207	10
215	12
217	608
218	124
219	117
220	29
221	33
222	7
223	3
229	6
230	9
231	14
232	5
233	21
234	4
243	6
244	122
245	48
246	15
247	4
257	22
258	5
259	4
265	3
273	4
277	4
278	3
279	4
285	39
286	9
287	4
291	31
292	70
293	23
294	9
303	13
304	4
305	80
306	22
307	13
318	12
319	22
320	7
331	60
332	18
333	32
334	13
335	22
336	7
345	14
346	8
347	42
348	13
349	6
362	6
363	9
375	18
376	4
377	4
379	24
380	9
381	4
390	5
419	6
437	12
438	4
465	75
466	30
467	16
468	4
480	73
481	29
482	15
483	4
