Mass Spectrum: N-Acetyl-L-glutamic acid, 2TMS derivative
Formula: C13H27NO5Si2
CAS: 56272-70-9
Molecular weight: 333
m/z	intensity
41	48
42	35
43	420
44	35
45	259
47	103
55	60
56	236
57	28
58	30
59	47
60	2
61	71
68	31
72	60
73	921
74	103
75	999
76	63
77	46
82	15
83	4
84	669
85	70
86	8
89	3
98	62
99	20
100	17
101	26
103	61
111	7
112	13
114	4
115	2
116	227
117	67
118	11
126	143
128	8
129	69
130	62
131	63
132	5
133	42
140	10
142	48
143	7
144	37
145	21
146	38
147	146
148	13
149	48
153	22
156	473
157	109
158	623
159	123
160	28
171	8
172	52
173	16
174	240
175	23
184	19
186	249
187	31
189	18
199	52
200	75
201	8
202	11
204	44
216	490
217	67
218	16
228	161
229	14
230	26
243	8
276	52
277	19
289	14
290	29
318	212
319	40
320	8
