Mass Spectrum: Mannitol, 1,4-di-O-methyl-, tetraacetate
Formula: C16H26O10
CAS: 56270-97-4
Molecular weight: 378
m/z	intensity
30	10
31	34
33	29
36	4
39	18
41	64
42	54
43	999
44	66
45	363
46	5
47	4
50	3
52	4
53	30
54	6
55	30
56	8
57	22
58	25
59	43
60	17
61	11
63	3
65	3
67	7
68	17
69	31
70	25
71	114
72	14
73	29
74	73
75	52
77	7
79	3
81	29
82	7
83	22
84	5
85	72
86	24
87	595
88	39
89	19
90	4
91	4
92	4
93	4
94	3
95	4
97	35
98	45
99	192
100	29
101	52
102	6
103	30
104	7
105	8
109	5
110	4
111	36
112	13
113	260
114	26
115	47
116	14
117	80
118	4
119	3
122	4
123	3
124	6
125	20
126	10
127	17
128	13
129	692
130	61
131	78
132	7
133	3
137	3
139	35
140	4
141	8
142	8
143	11
145	11
147	19
148	5
149	4
153	3
155	3
156	5
157	23
158	3
159	26
160	6
161	10
170	4
171	12
172	4
173	28
174	3
182	14
183	3
184	4
189	204
190	22
191	6
203	4
213	5
215	3
231	13
232	4
233	112
234	9
235	5
253	4
