Mass Spectrum: Cyclohexanol, 4-ethyl-4-methyl-3-(1-methylethenyl)-, (1.alpha.,3.alpha.,4.beta.)-
Formula: C12H22O
CAS: 56272-08-3
Molecular weight: 182
m/z	intensity
29	320
41	789
43	699
55	849
67	320
69	829
70	400
79	400
81	859
84	999
95	739
113	769
149	35
164	58
182	180
