Mass Spectrum: Nonanoic acid, 2-oxo-, methyl ester
Formula: C10H18O3
CAS: 56275-54-8
Molecular weight: 186
m/z	intensity
31	5
33	4
38	1
39	80
40	18
41	351
42	74
43	421
44	14
45	8
46	0
50	1
51	4
52	1
53	17
54	8
55	151
56	27
57	999
58	44
59	60
60	2
61	1
63	0
65	2
66	1
67	30
68	4
69	20
70	7
71	11
72	0
73	1
74	3
77	1
79	2
80	0
81	5
82	4
83	15
84	5
85	2
87	3
90	0
91	0
93	1
97	3
98	7
99	0
101	0
102	2
103	5
107	1
109	32
110	3
111	0
113	0
115	1
125	1
126	0
127	361
128	29
129	1
130	0
153	0
