Mass Spectrum: 5-Pyrimidinecarboxaldehyde, 2,4-bis[(trimethylsilyl)oxy]-
Formula: C11H20N2O3Si2
CAS: 56272-57-2
Molecular weight: 284
m/z	intensity
39	6
40	7
41	6
42	12
43	120
44	65
45	315
46	20
47	29
51	7
52	21
53	40
54	7
55	21
56	10
57	21
58	30
59	105
60	12
61	20
66	130
67	17
68	7
69	21
70	54
71	17
72	76
73	999
74	96
75	160
76	13
77	10
80	15
83	40
84	19
85	20
86	35
87	10
92	17
94	5
95	7
96	6
97	10
98	23
99	97
100	205
101	25
102	30
103	13
105	10
109	10
110	15
111	7
112	14
113	32
114	10
115	12
116	7
117	10
124	7
125	7
126	37
127	390
128	43
129	16
131	40
132	9
133	50
134	8
140	7
141	13
142	6
143	155
144	21
145	8
147	175
148	28
149	18
154	33
155	7
156	8
157	8
158	10
166	5
168	7
169	9
170	9
171	15
172	10
174	15
182	8
183	7
184	15
185	12
195	21
197	9
198	9
199	7
211	21
212	10
213	8
225	23
226	5
239	16
240	7
241	240
242	53
243	23
254	36
255	215
256	400
257	100
258	35
259	6
269	640
270	150
271	65
272	10
283	21
284	87
285	23
286	8
