Mass Spectrum: Nonacosanoic acid, 2,4,6-trimethyl-, methyl ester
Formula: C33H66O2
CAS: 56282-31-6
Molecular weight: 494
m/z	intensity
15	28
17	13
18	76
27	10
28	13
29	23
39	1
41	28
42	11
43	90
44	138
55	57
56	34
57	211
58	9
59	15
67	1
68	1
69	144
70	44
71	165
72	7
73	17
74	19
75	13
79	21
81	9
82	7
83	92
84	23
85	115
86	1
87	15
88	903
89	42
95	13
96	19
97	57
99	9
100	999
101	999
102	80
103	3
105	1
107	3
108	0
109	11
110	5
111	76
112	15
113	37
114	2
115	6
119	0
121	5
122	1
123	21
124	3
125	27
126	4
127	26
128	3
129	51
130	4
131	0
133	0
135	3
136	0
137	5
138	3
139	33
140	18
141	21
142	3
143	28
144	5
145	1
147	0
150	1
151	3
152	1
153	15
154	2
155	16
156	2
157	2
161	0
163	6
165	0
167	7
168	0
169	15
170	3
171	25
172	2
173	0
177	2
179	2
181	12
182	2
183	11
184	2
185	7
186	1
187	1
191	0
193	0
195	1
197	10
198	0
199	0
200	1
201	0
202	1
207	3
209	0
211	6
212	1
213	3
223	0
225	7
226	1
227	13
239	7
240	0
253	7
254	1
264	57
267	6
268	1
279	1
281	6
282	0
295	6
296	1
309	6
310	2
323	6
324	1
333	2
337	6
349	3
350	0
351	7
352	2
365	0
367	0
391	2
404	8
405	3
407	15
408	4
409	1
423	4
424	0
444	0
445	3
446	0
447	2
451	7
452	2
462	0
464	0
479	3
494	57
495	25
496	4
