Mass Spectrum: d-Glycero-d-galacto-2-nonulopyranosidonic acid, methyl 5-(acetylamino)-3,5-dideoxy-8-O-methyl-, methyl ester, 4,7,9-triacetate
Formula: C20H31NO12
CAS: 56282-35-0
Molecular weight: 477
m/z	intensity
42	52
43	999
44	52
97	21
98	35
99	52
101	199
102	43
112	43
114	26
115	44
116	63
117	216
118	29
120	12
121	21
122	65
123	39
124	33
141	33
142	27
143	218
144	36
145	36
151	19
152	17
153	33
154	54
155	28
197	18
198	16
199	65
201	16
238	20
252	26
253	7
259	26
282	9
284	54
285	15
286	19
297	25
343	15
344	16
358	9
360	9
376	10
385	5
386	9
402	21
403	9
418	105
419	21
