Mass Spectrum: Benzene, (1-cyclopropyl-1-methylethyl)-
Formula: C12H16
CAS: 56282-43-0
Molecular weight: 160
m/z	intensity
38	27
39	358
40	35
41	343
42	17
43	23
44	5
45	0
49	2
50	67
51	209
52	50
53	69
54	26
55	44
56	4
57	8
58	9
59	0
61	3
62	19
63	79
64	48
65	124
66	14
67	33
68	5
69	20
70	9
71	14
72	1
73	1
74	18
75	24
76	26
77	188
78	89
79	70
80	5
81	2
82	1
83	6
84	0
85	1
86	4
87	7
88	4
89	33
90	8
91	492
92	48
93	4
97	0
98	1
99	1
100	0
101	6
102	34
103	94
104	249
105	93
106	7
107	0
108	0
109	0
110	0
111	0
113	3
114	4
115	208
116	71
117	999
118	137
119	118
120	10
121	1
126	2
127	20
128	60
129	53
130	36
131	154
132	964
133	114
134	8
135	0
139	1
140	0
141	7
142	3
143	15
144	4
145	83
146	10
147	1
148	3
149	0
157	0
158	3
159	2
160	12
161	1
162	1
