Mass Spectrum: 9,10-Secoergosta-7,10(19),22-triene-3,5,6-triol, (3.beta.)-
Formula: C28H46O3
CAS: 56282-28-1
Molecular weight: 430
m/z	intensity
41	374
42	49
43	428
44	27
45	15
50	15
51	29
52	19
53	193
54	49
55	978
56	49
57	426
58	31
59	7
62	5
63	5
64	5
65	49
66	39
67	335
68	47
69	999
70	94
71	94
72	5
73	5
74	11
75	5
77	142
78	35
79	286
80	39
81	666
82	236
83	524
84	43
85	39
87	5
89	5
91	236
92	43
93	236
94	49
95	433
96	94
97	142
98	11
99	7
103	11
104	11
105	142
106	49
107	191
108	49
109	426
110	666
111	49
112	5
113	7
115	15
116	11
117	39
118	19
119	94
120	15
121	94
122	15
123	94
124	15
125	999
126	94
127	23
128	946
129	94
130	15
131	49
132	11
133	191
134	94
135	49
136	5
137	5
139	11
147	95
149	95
153	19
154	23
155	5
156	5
157	11
158	5
159	94
160	25
161	94
162	15
163	49
164	11
166	5
168	5
171	15
173	19
174	5
175	47
176	15
177	193
178	35
179	35
180	5
184	5
187	11
188	7
189	43
190	11
191	15
201	35
203	11
204	5
205	11
206	5
207	5
213	5
215	94
216	11
217	7
218	7
219	15
220	7
227	7
229	15
231	5
232	5
233	35
234	5
241	15
243	5
244	5
245	11
247	5
251	5
258	5
259	11
261	5
262	5
269	5
270	11
271	5
272	5
274	5
276	5
285	142
287	35
288	5
301	5
302	94
303	946
304	191
305	25
306	5
412	49
413	25
414	3
430	3
