Mass Spectrum: Carbonic acid, ethyl 2-mercaptoethyl ester
Formula: C5H10O3S
CAS: 5628-96-6
Molecular weight: 150
m/z	intensity
13	9
14	8
15	76
16	7
17	2
19	20
24	2
25	6
26	133
27	648
29	988
30	94
31	198
33	45
34	28
35	172
36	3
37	8
42	18
43	28
45	163
46	50
47	240
48	51
50	3
59	36
60	999
61	585
62	65
63	378
65	2
75	9
76	4
89	18
91	181
92	8
93	1
104	1
105	6
117	1
150	2
