Mass Spectrum: 2-Propanol, 1-(isooctyloxy)-2-methyl-
Formula: C12H26O2
CAS: 56282-27-0
Molecular weight: 202
m/z	intensity
17	2
18	10
19	1
26	1
27	29
28	13
29	62
30	2
31	30
32	1
33	1
39	31
40	4
41	124
42	31
43	194
44	10
45	102
46	2
51	1
53	8
54	3
55	132
56	84
57	253
58	32
59	999
60	35
61	3
65	1
67	6
68	8
69	127
70	73
71	138
72	13
73	58
74	7
75	21
77	1
79	1
81	4
82	9
83	58
84	116
85	27
86	2
87	8
88	1
89	8
91	2
95	4
96	2
97	31
98	5
99	4
100	1
101	12
102	1
103	9
109	2
110	9
111	76
112	80
113	23
114	3
115	2
117	1
127	3
128	1
129	4
141	4
142	13
143	62
144	14
145	2
157	1
169	1
187	11
188	1
202	0
