Mass Spectrum: Lanostane-7,11-dione, 3,18-bis(acetyloxy)-, cyclic 7-(1,2-ethanediyl mercaptole), (3.beta.,20.xi.)-
Formula: C36H58O5S2
CAS: 56298-07-8
Molecular weight: 634
m/z	intensity
41	350
42	40
43	999
44	40
45	20
53	40
54	20
55	450
56	150
57	590
58	30
59	50
60	40
61	110
65	20
67	190
68	40
69	530
70	50
71	240
72	10
73	20
77	50
79	150
80	30
81	290
82	50
83	220
84	30
85	130
86	10
91	150
92	30
93	290
94	70
95	340
96	60
97	130
98	10
99	30
100	70
101	60
103	20
105	220
106	30
107	290
108	70
109	230
110	30
111	60
112	10
113	30
115	30
116	10
117	40
118	110
119	170
120	60
121	340
122	110
123	170
124	20
125	100
126	10
127	20
128	10
129	40
130	20
131	330
132	40
133	150
134	70
135	190
136	60
137	80
138	30
139	70
140	10
141	20
142	20
143	50
144	30
145	140
146	40
147	120
148	40
149	100
150	20
151	40
152	20
153	50
154	20
155	40
156	20
157	60
158	30
159	90
160	10
161	110
162	30
163	90
164	20
165	40
166	10
167	30
168	10
169	30
170	20
171	150
172	60
173	100
174	20
175	80
176	20
177	60
178	10
179	50
180	20
181	50
182	20
183	30
184	20
185	800
186	110
187	90
188	20
189	60
190	20
191	110
192	30
193	60
194	20
195	30
196	10
197	50
198	30
199	280
200	40
201	50
202	40
203	50
204	20
205	50
206	20
207	50
208	10
209	20
210	410
211	200
212	90
213	60
214	10
215	40
216	10
217	30
218	20
219	60
220	20
221	30
222	10
223	20
224	10
225	40
226	20
227	80
228	20
229	30
231	30
232	10
233	20
234	10
235	30
236	10
237	20
238	90
239	150
240	30
241	30
242	10
243	30
244	10
245	20
246	10
247	20
248	10
249	30
250	10
251	50
252	10
253	40
254	10
255	30
256	20
257	20
258	10
259	30
260	20
261	30
262	10
263	40
264	10
265	30
266	20
267	40
268	10
269	20
270	240
271	70
272	40
273	30
274	10
275	60
276	20
277	10
278	20
279	30
280	20
281	10
283	20
284	10
285	20
286	10
287	20
288	10
289	10
290	10
291	20
292	10
293	10
294	10
295	20
297	20
298	90
299	100
300	20
301	20
302	10
303	50
304	20
305	20
306	10
307	30
308	10
309	20
311	30
312	10
313	30
314	20
315	30
316	30
317	30
318	20
319	20
320	10
321	10
322	10
323	10
324	10
325	30
326	20
327	30
328	20
329	40
330	20
331	20
332	10
333	10
334	10
335	30
339	20
340	10
341	20
342	20
343	30
344	20
345	20
346	10
347	10
348	10
349	10
350	10
353	10
355	30
356	10
357	30
358	10
359	20
360	20
361	50
362	50
363	20
364	20
365	10
369	20
370	10
371	30
377	30
383	20
385	50
387	50
388	20
389	30
401	30
402	10
403	30
404	10
405	10
411	10
413	30
421	20
423	30
425	20
427	10
437	20
438	30
439	40
440	20
441	40
442	10
443	40
444	10
453	20
454	20
455	50
456	90
457	50
458	10
461	10
465	10
466	10
467	20
468	10
469	90
470	60
471	30
472	10
480	10
481	50
482	20
483	60
484	30
485	50
486	20
487	20
492	20
493	10
496	10
497	10
498	50
499	40
500	20
501	10
503	10
504	20
505	10
512	10
513	60
514	50
515	40
516	50
517	20
518	10
529	20
530	10
531	50
532	20
533	10
541	10
542	40
543	20
544	10
546	70
547	20
548	10
556	20
557	10
558	310
559	140
560	40
561	20
564	10
573	30
574	170
575	70
576	40
577	10
591	10
606	230
607	90
608	40
609	10
619	10
632	10
634	110
635	40
636	20
637	10
