Mass Spectrum: Cholesta-2,8-dien-6-ol, 14-methyl-, acetate, (5.alpha.,6.alpha.)-
Formula: C30H48O2
CAS: 56293-01-7
Molecular weight: 440
m/z	intensity
40	90
41	330
42	60
43	999
44	60
45	30
53	30
54	10
55	330
56	30
57	360
67	70
69	300
70	30
71	220
77	50
79	100
81	160
82	10
83	210
85	60
91	150
92	20
93	110
94	10
95	200
96	10
97	180
99	10
105	150
106	20
107	90
109	90
111	130
113	20
115	20
117	50
119	60
121	50
123	30
125	50
127	20
128	30
129	60
130	30
131	110
132	10
133	30
141	240
142	90
143	540
144	80
145	210
146	20
147	20
153	20
155	60
156	30
157	240
158	60
159	60
160	10
161	10
166	10
168	20
169	30
170	20
171	110
172	30
173	40
174	10
179	20
180	10
181	20
182	10
183	60
184	20
185	30
186	20
187	20
195	20
196	10
197	70
198	20
199	70
200	10
207	10
209	10
211	50
212	20
213	30
221	10
225	30
226	10
239	10
241	10
251	20
252	10
253	10
267	10
311	260
312	70
313	10
365	170
366	40
367	10
368	10
380	360
381	100
