Mass Spectrum: 3,5-Cyclopregnane-20-carboxaldehyde, 6-methoxy-, (3.beta.,5.alpha.,6.beta.)-
Formula: C23H36O2
CAS: 56298-02-3
Molecular weight: 344
m/z	intensity
40	150
41	570
42	60
43	600
44	430
45	280
46	30
50	20
51	90
52	10
53	120
54	10
55	610
56	80
57	200
58	130
59	110
60	100
63	30
65	280
66	50
67	450
68	50
69	390
70	40
71	410
72	10
73	10
76	10
77	350
78	80
79	630
80	140
81	680
82	80
83	200
84	60
85	150
89	40
91	999
92	320
93	600
94	350
95	660
96	70
97	140
98	30
99	40
102	10
103	70
104	70
105	600
106	320
107	570
108	210
109	360
110	80
111	110
112	10
113	10
114	30
115	160
116	110
117	200
118	110
119	360
120	250
121	470
122	170
123	320
124	50
125	60
127	20
128	100
129	170
130	50
131	600
132	110
133	300
134	140
135	310
136	100
137	230
138	90
139	320
140	20
141	40
142	40
143	140
144	50
145	370
146	90
147	260
148	90
149	170
150	30
151	80
152	40
153	30
155	30
156	10
157	110
158	40
159	270
160	160
161	280
162	200
163	440
164	60
165	60
166	10
167	20
169	10
171	60
172	20
173	140
174	40
175	100
176	50
177	90
178	30
179	190
180	20
182	260
183	20
185	70
186	10
187	90
188	20
189	60
190	30
191	100
192	20
193	30
195	10
197	30
199	100
200	30
201	100
202	30
203	30
204	10
205	10
207	40
210	30
211	30
213	130
214	30
215	40
216	10
217	30
223	10
225	10
226	10
227	50
228	50
229	150
230	50
231	50
233	100
239	20
241	50
243	50
244	10
247	50
253	10
254	40
255	100
256	80
257	40
258	170
259	70
260	10
261	770
262	140
267	20
269	160
270	50
271	40
272	50
273	50
274	40
276	20
277	110
282	30
283	20
284	560
285	150
286	110
287	50
288	10
289	390
290	50
297	10
298	110
299	10
300	90
301	360
302	110
305	40
312	290
313	70
314	10
315	70
316	300
317	130
318	10
328	90
329	240
330	110
331	10
332	50
344	190
345	70
