Mass Spectrum: Cyclohexanol, 4-ethenyl-4-methyl-3-(1-methylethenyl)-, (1.alpha.,3.beta.,4.alpha.)-
Formula: C12H20O
CAS: 56298-46-5
Molecular weight: 180
m/z	intensity
39	400
41	829
43	709
53	400
55	739
67	949
68	999
69	460
79	619
81	939
82	909
93	460
147	609
162	400
