Mass Spectrum: Hexanal, O-methyloxime
Formula: C7H15NO
CAS: 56292-95-6
Molecular weight: 129
m/z	intensity
26	10
27	210
28	190
29	240
30	30
31	30
32	10
33	30
39	120
40	10
41	340
42	150
43	300
44	20
45	40
53	20
54	80
55	180
56	50
57	30
58	60
59	20
60	70
67	20
68	40
69	40
70	20
72	10
73	999
74	40
82	30
83	20
86	280
87	40
98	20
100	60
101	20
114	20
129	50
