Mass Spectrum: Benzene, 4-heptynyl-
Formula: C13H16
CAS: 56293-03-9
Molecular weight: 172
m/z	intensity
41	128
50	19
51	69
52	29
53	69
55	19
63	39
64	9
65	118
66	19
67	29
68	19
77	128
78	59
79	118
80	9
81	59
84	19
85	9
91	445
92	217
93	19
94	9
102	9
103	89
104	999
105	247
106	19
115	89
116	39
117	59
118	29
127	29
128	118
129	396
130	79
131	19
141	29
142	39
143	495
144	168
145	29
157	118
158	19
171	29
172	257
173	59
