Mass Spectrum: Cyclohexanol, 4-ethenyl-4-methyl-3-(1-methylethenyl)-, (1.alpha.,3.alpha.,4.beta.)-
Formula: C12H20O
CAS: 56298-45-4
Molecular weight: 180
m/z	intensity
39	350
41	769
43	649
53	350
55	709
67	889
68	999
69	460
79	629
81	899
82	839
93	490
147	440
162	220
