Mass Spectrum: 2-Butenoic acid, 2-methyl-, 4,5,6,6a,7,10b-hexahydro-3,10-dimethyl-2H,3H-oxeto[2',3':4,4a]naphtho[2,3-b]furan-4-yl ester
Formula: C20H26O4
CAS: 56298-87-4
Molecular weight: 330
m/z	intensity
29	454
30	10
31	27
39	218
40	45
41	309
43	263
44	10
50	12
51	40
52	27
53	254
54	118
55	999
56	78
57	45
63	18
65	94
66	43
67	145
69	21
70	41
71	25
77	163
78	45
79	136
80	27
81	70
82	54
83	381
84	38
85	34
91	263
92	36
93	85
94	34
95	18
96	36
97	18
100	54
103	45
104	21
105	112
106	27
107	110
108	90
109	76
115	69
116	27
117	70
119	136
120	29
121	43
122	163
123	114
124	76
128	52
129	50
130	18
131	58
132	27
133	40
134	27
136	61
145	145
146	109
147	127
148	107
149	27
157	32
158	18
159	236
160	118
161	45
171	23
173	54
175	18
183	10
184	9
185	27
186	14
187	38
201	54
202	47
203	25
217	18
230	40
330	100
