Mass Spectrum: .alpha.-D-Glucopyranoside, 2,3-bis(acetyloxy)-1-(1-phenyl-1H-pyrazolo[3,4-b]quinoxalin-3-yl)propyl O-2,3,4,6-tetra-O-acetyl-.alpha.-D-glucopyranosyl-(1.fwdarw.4)-O-2,3,6-tri-O-acetyl-.alpha.-D-glucopyranosyl-(1.fwdarw.4)-, 2,3,6-triacetate, [1S-(1
Formula: C60H70N4O30
CAS: 56298-41-0
Molecular weight: 1326
m/z	intensity
41	47
42	84
43	999
44	111
45	103
56	58
58	68
60	95
69	84
70	21
71	42
75	26
77	18
81	95
82	18
83	31
84	74
85	31
93	31
97	68
98	68
99	29
109	182
110	47
111	21
112	18
114	76
127	97
139	55
140	26
141	18
145	58
146	18
147	10
150	13
151	47
152	10
153	10
169	595
170	58
171	18
185	42
187	68
197	31
199	39
200	68
211	79
213	42
215	3
220	21
229	142
230	21
242	68
243	68
245	60
246	21
247	21
259	50
260	37
271	87
272	34
273	87
274	58
275	116
276	31
284	58
285	74
286	18
287	55
288	47
289	145
290	31
300	50
301	275
302	142
303	31
317	127
318	31
319	18
331	576
332	134
333	37
343	63
344	246
345	68
359	21
360	47
361	21
403	269
404	68
405	10
418	11
419	9
420	4
457	4
517	5
559	33
560	9
561	3
605	4
619	38
620	10
621	3
633	1
691	5
692	2
707	2
708	3
737	7
738	3
750	1
754	1
763	1
764	1
804	1
805	3
847	19
848	7
865	1
892	0
893	0
907	21
908	8
909	3
921	0
922	0
923	0
937	1
979	11
980	7
981	2
982	1
995	0
996	1
997	1
1025	7
1026	4
1027	1
1038	0
1039	0
1266	1
1267	2
1268	1
1283	1
1284	1
1285	1
1326	7
1327	4
1328	2
