Mass Spectrum: Benzoic acid, 2-amino-, 4-methylcyclohexyl ester
Formula: C14H19NO2
CAS: 56298-94-3
Molecular weight: 233
m/z	intensity
49	16
50	113
51	167
52	105
53	300
54	404
55	999
56	281
57	47
58	28
59	5
60	11
61	19
62	36
63	263
64	61
65	265
66	110
67	312
68	302
69	89
70	513
71	234
72	73
73	32
74	14
75	10
76	12
77	83
78	28
79	86
80	29
81	919
82	71
83	43
84	15
85	60
86	41
87	6
88	20
89	6
90	20
91	91
92	272
93	180
94	25
95	127
96	638
97	75
98	5
99	5
100	1
101	1
102	1
104	5
105	31
106	7
107	2
108	2
109	2
110	2
111	1
112	9
113	25
114	65
115	7
116	1
117	5
118	11
119	745
120	275
121	31
122	15
123	2
127	1
128	1
129	1
130	1
131	2
132	7
133	3
134	2
135	2
136	9
137	779
138	86
139	9
140	1
232	1
233	148
234	28
