Mass Spectrum: 5-Nonanone, O-methyloxime
Formula: C10H21NO
CAS: 56292-94-5
Molecular weight: 171
m/z	intensity
25	3
26	24
27	195
28	113
29	309
30	68
31	79
32	58
33	7
36	1
37	8
38	14
39	115
40	21
41	524
42	280
43	221
44	11
45	29
46	0
47	18
48	44
49	1
50	7
51	12
52	14
53	31
54	165
55	160
56	69
57	197
58	16
59	13
60	4
61	0
63	0
64	1
65	4
66	5
67	31
68	24
69	38
70	16
71	5
72	14
73	13
74	1
76	1
77	3
78	4
79	8
80	5
81	11
82	71
83	53
84	64
85	5
86	7
87	999
88	43
89	2
91	1
92	0
93	4
94	5
95	3
96	7
97	4
98	3
99	1
100	43
101	21
102	1
106	1
108	1
110	6
111	0
112	4
114	36
115	2
117	0
118	0
124	3
125	0
126	0
128	0
129	83
130	11
131	2
135	0
137	0
140	2
141	0
142	83
143	6
156	8
157	0
170	2
171	15
172	1
