Mass Spectrum: Benzoic acid, 2-amino-, 1-methylpropyl ester
Formula: C11H15NO2
CAS: 56298-93-2
Molecular weight: 193
m/z	intensity
15	2
26	3
27	23
29	48
30	2
31	1
37	2
38	9
39	63
40	7
41	56
42	10
43	12
44	7
45	6
46	1
50	6
51	7
52	21
53	10
54	4
55	10
56	8
57	15
58	3
59	1
60	1
61	1
62	6
63	28
64	35
65	165
66	24
67	2
68	1
72	2
73	4
74	2
75	2
76	5
77	3
78	2
79	1
80	3
81	1
88	1
89	2
90	11
91	41
92	250
93	43
94	3
100	1
104	1
105	1
106	1
108	1
117	1
118	2
119	999
120	321
121	26
122	2
127	1
128	1
132	1
136	7
137	405
138	31
139	3
142	1
146	7
147	2
160	1
193	152
194	18
195	2
