Mass Spectrum: 3-Oxohexanedioic acid, 1-ethyl ester 6-methyl ester
Formula: C9H14O5
CAS: 56294-09-8
Molecular weight: 202
m/z	intensity
25	5
26	39
27	159
28	118
29	241
30	22
31	251
37	4
38	5
39	26
40	6
41	51
42	133
43	633
44	195
45	153
46	48
51	5
53	13
54	9
55	278
56	69
57	91
59	156
60	11
61	20
62	6
63	6
68	10
69	47
70	20
71	52
73	11
74	5
75	7
81	8
82	5
83	19
84	36
85	13
86	7
87	166
88	138
90	12
96	32
97	81
98	77
99	195
100	17
101	28
102	5
113	6
114	27
115	999
116	59
117	9
122	4
124	29
125	112
126	9
128	13
129	28
130	43
131	5
141	4
142	24
143	165
144	15
155	5
156	104
157	61
158	6
171	41
172	44
173	7
202	11
203	16
204	5
