Mass Spectrum: 2-Methyl-1-butene
Formula: C5H10
CAS: 563-46-2
Molecular weight: 70
m/z	intensity
14	2
15	12
25	1
26	15
27	146
28	18
29	227
30	6
31	6
37	9
38	26
39	253
40	39
41	242
42	303
43	21
44	2
49	4
50	19
51	22
52	8
53	80
54	23
55	999
56	45
57	2
61	3
62	4
63	4
65	5
66	2
67	13
68	2
69	29
70	380
71	20
72	1
