Mass Spectrum: Acetic acid, rubidium salt
Formula: C2H3O2Rb
CAS: 563-67-7
Molecular weight: 144
m/z	intensity
15	13
28	26
42	24
43	40
44	93
45	30
60	20
85	999
87	398
101	11
103	4
129	25
131	10
168	1
170	1
172	1
186	1
229	18
231	14
233	2
