Mass Spectrum: Aluminum, dichloroethyl-
Formula: C2H5AlCl2
CAS: 563-43-9
Molecular weight: 126
m/z	intensity
26	241
27	494
28	624
29	559
30	116
31	2
35	61
36	213
37	18
38	79
39	12
41	32
42	6
43	33
44	1
45	1
46	6
47	8
48	1
49	5
50	1
51	1
52	10
53	2
54	2
55	10
56	8
57	12
58	3
59	10
62	251
63	101
64	98
65	31
66	1
69	1
70	1
71	1
73	2
74	1
75	5
76	4
77	10
78	2
79	3
80	2
81	19
82	1
83	5
85	18
86	1
87	15
88	4
89	12
90	75
91	176
92	23
93	56
94	1
95	2
96	1
97	999
98	25
99	646
100	13
101	94
102	3
105	2
106	1
107	1
109	4
110	5
111	4
112	2
113	2
114	1
115	10
116	1
118	1
119	3
120	11
121	4
122	3
123	2
124	4
125	79
126	162
127	47
128	107
129	11
130	16
