Mass Spectrum: Tibolone
Formula: C21H28O2
CAS: 5630-53-5
Molecular weight: 312
m/z	intensity
15	2
24	4
25	13
26	60
27	63
28	20
29	91
30	2
31	5
37	2
39	170
40	55
41	429
42	73
43	173
44	7
45	5
49	1
50	10
51	76
52	43
53	384
54	59
55	599
56	36
57	47
58	8
59	5
61	1
62	3
63	29
64	27
65	202
66	65
67	355
68	145
69	121
70	15
71	24
72	10
73	8
74	3
75	7
77	475
78	131
79	547
80	86
81	360
82	55
83	66
84	11
85	15
86	7
87	12
88	4
89	28
91	999
92	160
93	389
94	92
95	203
96	53
97	250
98	29
99	11
100	4
101	10
102	24
103	140
104	87
105	870
106	186
107	311
108	167
109	134
110	107
111	30
112	6
113	7
115	265
116	113
117	417
118	260
119	567
120	167
121	242
122	109
123	151
124	360
125	41
126	9
127	58
128	190
129	245
130	101
131	474
132	255
133	319
134	205
135	226
136	270
137	248
138	94
139	22
141	106
142	90
143	229
144	115
145	359
146	138
147	214
148	133
149	153
150	97
151	28
152	32
153	39
154	26
155	103
156	80
157	213
158	120
159	491
160	164
161	213
162	85
163	61
164	16
165	34
166	15
167	31
168	26
169	125
170	62
171	231
172	227
173	373
174	318
175	167
176	312
177	84
178	23
179	19
180	8
181	52
182	27
183	75
184	55
185	133
186	107
187	277
188	114
189	74
190	21
191	9
192	4
193	14
194	9
195	55
196	27
197	68
198	34
199	78
200	49
201	100
202	85
203	32
204	8
205	5
206	3
207	10
208	9
209	51
210	30
211	97
212	43
213	131
214	57
215	96
216	45
217	19
218	4
219	6
220	3
221	17
222	7
223	52
224	25
225	41
226	64
227	169
228	74
229	923
230	174
231	29
232	5
233	4
234	1
235	9
236	11
237	51
238	17
239	31
240	19
241	28
242	40
243	40
244	86
245	22
246	4
247	2
249	2
250	4
251	27
252	35
253	32
254	11
255	45
256	17
257	17
258	97
259	20
260	3
261	7
265	15
266	15
267	6
268	19
269	36
270	18
271	23
272	4
276	2
277	2
279	105
280	21
281	3
283	12
284	11
286	212
287	42
293	4
294	51
295	15
296	3
297	100
298	20
299	3
310	2
312	200
313	45
314	7
