Mass Spectrum: di-tert-Butylchlorosilane
Formula: C8H19ClSi
CAS: 56310-18-0
Molecular weight: 178
m/z	intensity
15	1
26	1
27	15
28	4
29	69
30	2
31	2
36	0
37	0
38	2
39	48
40	8
41	243
42	15
43	56
44	7
45	17
46	1
47	0
49	0
50	1
51	2
52	0
53	11
54	2
55	29
56	506
57	999
58	51
59	17
60	1
61	0
63	60
64	8
65	47
66	6
67	14
68	1
69	5
70	1
71	3
72	0
73	22
74	2
75	0
77	2
78	31
79	209
80	22
81	71
82	4
83	5
84	1
85	6
86	7
87	1
88	0
89	1
90	0
91	4
92	19
93	307
94	28
95	109
96	7
97	4
98	0
99	1
100	1
101	1
102	0
103	1
104	0
105	103
106	9
107	39
108	3
109	1
110	0
113	0
114	0
115	0
117	1
118	0
119	4
120	181
121	232
122	110
123	76
124	19
125	3
126	0
127	1
128	0
135	1
136	0
137	0
142	0
178	72
179	10
180	27
181	3
182	1
