Mass Spectrum: Cholesta-9(11),24-diene-3,6,20-triol, 3,6-diacetate, (3.beta.,5.alpha.,6.alpha.,20R)-
Formula: C31H48O5
CAS: 56312-50-6
Molecular weight: 500
m/z	intensity
41	555
42	10
43	939
44	888
55	373
57	30
58	30
67	303
68	10
69	757
70	30
79	232
80	121
81	757
82	909
83	232
91	262
92	80
93	606
94	70
95	363
105	353
106	50
107	272
108	242
109	999
110	171
117	80
118	20
119	222
120	50
121	535
122	50
127	80
128	30
129	101
130	20
131	282
132	40
133	90
134	10
135	80
136	111
141	50
142	30
143	222
144	70
145	222
146	30
147	70
148	20
149	20
155	101
156	30
157	202
158	50
159	212
169	141
170	20
171	101
172	20
173	60
181	90
182	10
183	90
184	10
185	80
186	10
190	50
195	131
196	40
197	121
198	20
199	50
209	141
210	90
211	313
212	70
213	90
223	70
224	20
225	90
226	50
227	70
237	40
238	10
239	70
251	242
252	90
253	181
254	80
265	90
279	60
280	101
281	151
282	30
293	424
294	90
297	121
298	20
311	222
312	111
313	60
339	20
340	111
341	60
347	181
348	30
353	80
354	10
362	171
363	50
369	121
370	30
371	101
372	20
399	50
400	20
406	20
412	10
417	40
422	141
423	40
482	272
483	80
