Mass Spectrum: 3,4-Dihydrocoumarin-7-ol
Formula: C9H8O3
CAS: 5631-67-4
Molecular weight: 164
m/z	intensity
42	251
45	353
51	122
53	40
55	150
65	198
66	117
67	86
77	277
79	129
91	75
94	131
95	83
105	176
107	159
110	152
121	143
122	178
123	999
135	282
136	573
137	72
147	78
163	182
164	863
165	113
