Mass Spectrum: Cholest-9(11)-ene-3,6,20-triol, 3,6-diacetate, (3.beta.,5.alpha.,6.alpha.,20R)-
Formula: C31H50O5
CAS: 56312-51-7
Molecular weight: 502
m/z	intensity
40	111
41	363
42	40
43	999
44	828
55	494
56	60
57	222
58	50
67	262
68	121
69	666
70	60
71	90
79	181
80	20
81	696
82	242
83	121
91	222
92	10
93	262
94	60
95	515
96	70
97	70
105	303
106	30
107	171
108	40
109	70
111	181
117	80
118	40
119	202
120	20
121	333
122	30
123	90
129	272
130	40
131	232
132	50
133	80
138	151
139	10
142	30
143	222
144	70
145	191
146	30
155	111
156	40
157	181
158	70
159	101
169	161
170	30
171	101
172	30
173	70
181	80
182	10
183	121
184	30
185	60
192	101
195	222
196	40
197	161
198	20
199	60
209	222
210	181
211	535
212	161
213	161
223	90
224	50
225	151
226	121
227	222
237	20
238	50
239	161
251	131
252	20
253	60
254	373
255	90
269	40
270	111
271	70
272	121
273	10
279	121
285	232
286	70
297	272
298	131
311	90
312	50
314	191
315	30
339	60
349	616
350	161
364	757
365	222
417	363
418	80
424	363
425	101
484	252
485	70
