Mass Spectrum: Methoxydi(tert-butyl)silane
Formula: C9H22OSi
CAS: 56310-21-5
Molecular weight: 174
m/z	intensity
26	28
27	101
28	10
29	225
30	13
31	42
33	5
36	4
37	12
38	21
39	172
40	27
41	288
42	31
43	85
44	28
45	208
46	21
47	18
48	4
49	4
50	42
51	49
52	61
53	28
54	4
55	39
56	96
57	229
58	45
59	659
60	75
61	96
62	8
63	8
65	4
66	9
67	11
68	17
69	12
70	4
71	11
73	25
74	15
75	482
76	43
77	21
78	7
79	49
80	4
83	4
85	21
86	7
87	7
88	9
89	999
90	95
91	48
92	4
101	9
116	58
117	165
118	29
119	9
174	26
175	4
176	1
