Mass Spectrum: 2-Pentene, 5-bromo-2,3-dimethyl-
Formula: C7H13Br
CAS: 56312-52-8
Molecular weight: 176
m/z	intensity
41	222
42	30
43	353
44	20
45	40
55	181
56	60
57	161
58	90
67	30
68	10
69	90
70	20
71	30
81	161
82	20
83	999
84	70
85	30
96	40
97	232
98	30
