Mass Spectrum: 2,4-Docosanediol, 3,5-dimethyl-
Formula: C24H50O2
CAS: 56324-81-3
Molecular weight: 370
m/z	intensity
60	28
67	78
68	442
70	178
71	250
72	78
73	28
74	14
75	14
77	7
79	14
80	7
81	78
82	50
83	221
84	264
85	557
86	57
87	14
95	64
96	28
97	207
98	28
99	28
101	7
102	14
103	999
104	64
105	28
109	35
110	14
111	114
112	14
113	28
114	28
121	1
122	0
123	17
124	5
125	48
126	8
127	12
128	1
129	1
130	0
135	1
136	0
137	6
138	2
139	20
140	4
141	6
142	0
149	1
151	2
152	1
153	10
154	2
155	5
156	0
159	0
165	1
166	1
167	6
168	1
169	4
175	0
179	0
180	1
181	5
182	1
183	2
193	0
194	0
195	3
196	0
197	2
207	0
208	1
209	2
210	1
211	1
215	0
216	0
221	0
222	1
223	1
224	3
225	1
228	1
229	1
230	1
231	1
232	0
235	0
236	1
237	1
238	2
239	1
249	0
250	1
251	4
252	2
253	4
254	1
255	0
263	1
264	4
265	7
266	5
267	7
268	2
269	0
275	0
276	0
277	1
278	1
279	2
280	3
281	5
282	2
283	30
284	7
285	1
291	0
292	0
293	1
294	13
295	9
296	5
297	72
298	15
299	2
305	1
306	1
307	2
308	26
309	7
310	0
311	2
312	0
313	1
319	1
320	0
322	0
323	2
324	0
327	2
328	0
334	0
335	1
337	4
338	2
339	0
351	1
352	3
353	2
367	1
