Mass Spectrum: 13,21-Cyclo-18-norpregnan-20-ol, 20-methyl-, (5.alpha.,20S)-
Formula: C21H34O
CAS: 56324-74-4
Molecular weight: 302
m/z	intensity
40	70
41	970
42	120
43	999
44	90
45	50
47	20
50	20
51	40
52	30
53	220
54	70
55	650
56	90
57	140
58	130
59	30
60	10
63	10
64	10
65	100
66	60
67	590
68	100
69	200
70	20
71	170
72	10
73	10
74	10
75	40
76	20
77	240
78	80
79	500
80	580
81	540
82	60
83	120
84	430
85	60
86	20
87	10
89	10
91	450
92	140
93	350
94	230
95	390
96	50
97	50
98	10
99	10
100	10
101	10
103	30
104	40
105	290
106	130
107	210
108	180
109	350
110	60
111	30
115	40
116	20
117	100
118	70
119	220
120	180
121	190
122	110
123	60
124	10
125	10
127	10
128	20
129	30
130	20
131	90
132	50
133	170
134	330
135	280
136	50
137	30
138	10
141	10
142	10
143	20
144	10
145	80
146	40
147	170
148	120
149	290
150	110
151	100
152	10
157	10
158	10
159	90
160	40
161	80
162	70
163	60
164	10
165	10
171	10
172	10
173	50
174	150
175	160
176	30
185	10
187	50
188	40
189	40
191	10
193	10
199	10
200	10
201	40
202	10
203	40
204	10
213	10
214	10
215	20
216	60
217	80
218	30
219	10
220	10
227	10
228	10
229	160
230	30
231	10
232	10
241	20
242	20
243	10
244	380
245	80
246	10
255	10
256	30
257	30
259	20
269	80
270	20
284	140
285	30
287	30
288	10
302	40
303	10
