Mass Spectrum: 1,4-Naphthalenedione, 2-methyl-3-(3,7,11-trimethyl-2,10-dodecadienyl)-
Formula: C26H34O2
CAS: 56324-32-4
Molecular weight: 378
m/z	intensity
69	999
81	531
95	553
109	693
128	443
141	209
178	106
186	343
198	143
225	687
239	37
251	43
266	134
278	25
291	25
302	6
304	15
306	21
308	6
363	31
378	234
