Mass Spectrum: Tolpropamine
Formula: C18H23N
CAS: 5632-44-0
Molecular weight: 253
m/z	intensity
26	0
28	2
30	35
31	1
38	1
39	5
40	17
42	17
44	21
45	2
46	3
50	1
51	4
52	1
58	999
59	51
60	0
61	3
62	1
63	4
64	1
65	12
72	17
73	1
74	0
75	1
76	2
77	7
78	2
87	0
89	3
90	0
91	10
92	1
93	3
101	0
102	2
103	5
104	4
105	3
115	18
116	6
117	5
118	2
120	0
121	33
128	0
129	3
130	1
131	1
132	1
146	2
152	12
160	2
161	5
162	0
165	19
166	12
167	7
174	0
175	0
176	1
178	11
179	4
181	4
182	8
189	0
192	0
193	25
194	2
207	4
208	4
253	103
254	22
255	2
