Mass Spectrum: Cyclobutanone, 3-ethyl-
Formula: C6H10O
CAS: 56335-73-0
Molecular weight: 98
m/z	intensity
26	30
27	222
28	202
29	131
38	30
39	292
40	50
41	999
42	464
43	252
50	20
51	30
52	10
53	40
54	20
55	353
56	616
57	20
70	545
71	20
80	40
83	30
98	212
99	10
