Mass Spectrum: 4-Hexen-2-one, O-methyloxime
Formula: C7H13NO
CAS: 56335-99-0
Molecular weight: 127
m/z	intensity
39	610
40	150
41	510
42	820
43	90
44	20
45	40
50	70
51	100
52	100
53	410
54	620
55	980
56	150
57	30
58	20
59	20
65	30
66	30
67	130
68	110
69	100
70	20
71	100
72	610
73	20
77	30
78	30
79	20
80	210
81	300
82	60
85	30
86	20
87	40
93	30
94	530
95	420
96	190
97	40
110	10
111	999
112	80
126	90
127	260
128	30
