Mass Spectrum: 4-Penten-2-one, 3-methyl-, O-methyloxime
Formula: C7H13NO
CAS: 56335-98-9
Molecular weight: 127
m/z	intensity
39	209
40	45
41	181
42	345
43	54
50	45
51	72
52	118
53	127
54	109
55	427
56	36
67	45
68	45
69	36
70	18
71	27
72	218
73	9
78	18
79	154
80	90
81	118
82	27
94	36
95	27
96	81
97	18
101	9
112	999
113	63
126	27
127	18
