Mass Spectrum: Cyclobutane, 1-ethyl-3-methylene-
Formula: C7H12
CAS: 56335-70-7
Molecular weight: 96
m/z	intensity
27	49
28	19
29	19
39	99
40	19
41	138
42	9
51	19
52	9
53	39
54	207
55	79
56	9
66	39
67	999
68	79
76	19
78	29
81	128
95	29
96	257
97	19
