Mass Spectrum: Ethanone, 1-(3-ethylcyclobutyl)-
Formula: C8H14O
CAS: 56335-71-8
Molecular weight: 126
m/z	intensity
41	600
42	40
43	999
44	30
45	10
50	20
51	30
52	10
53	70
54	20
55	600
56	250
57	20
58	50
59	290
60	20
65	10
67	80
68	200
69	70
70	20
71	740
72	60
77	10
79	20
81	20
82	30
83	250
84	40
85	30
91	10
93	20
95	10
97	150
98	20
108	20
109	20
111	120
112	10
126	130
127	30
