Mass Spectrum: Cyclobutanol, 3-ethyl-, acetate
Formula: C8H14O2
CAS: 56335-72-9
Molecular weight: 142
m/z	intensity
41	90
42	20
43	999
44	60
45	10
51	10
53	20
54	10
55	40
56	30
57	10
58	40
59	20
67	50
68	10
71	10
81	10
82	50
83	10
85	10
86	300
87	20
99	30
100	10
101	10
113	10
114	10
124	1
127	3
