Mass Spectrum: 3-Hepten-2-one, O-methyloxime
Formula: C8H15NO
CAS: 56336-01-7
Molecular weight: 141
m/z	intensity
39	500
40	150
41	999
42	840
43	280
44	600
45	260
51	60
52	70
53	300
54	460
55	470
56	170
57	80
58	170
65	70
66	50
67	270
68	300
69	310
70	60
71	70
72	60
73	20
77	110
78	30
79	140
80	260
81	330
82	520
83	120
84	20
91	70
92	30
93	80
94	360
95	500
96	260
97	140
98	70
99	40
100	40
106	360
107	420
108	170
109	70
110	290
111	110
112	190
113	30
125	220
126	20
139	30
140	20
141	730
142	60
