Mass Spectrum: 5-Hexen-2-one, O-methyloxime
Formula: C7H13NO
CAS: 56335-97-8
Molecular weight: 127
m/z	intensity
39	590
40	110
41	720
42	999
43	290
44	130
45	220
50	40
51	90
52	100
53	210
54	920
55	900
56	620
57	60
58	30
65	20
66	30
67	110
68	230
69	300
70	60
71	40
72	60
77	40
78	20
79	180
80	200
81	470
82	260
83	20
85	10
86	60
87	20
93	50
94	400
95	200
96	230
97	290
98	40
100	30
112	120
113	20
126	40
127	120
128	20
