Mass Spectrum: 1-Propanone, 1-cyclopropyl-,O-methyloxime
Formula: C7H13NO
CAS: 56336-10-8
Molecular weight: 127
m/z	intensity
39	640
40	200
41	999
42	380
43	970
44	440
45	80
51	30
52	80
53	130
54	210
55	280
56	410
57	100
58	850
59	60
64	20
65	40
66	110
67	520
68	920
69	270
70	30
71	40
72	40
75	10
76	30
77	30
78	10
79	60
80	130
81	80
82	170
83	160
84	60
86	90
94	100
95	30
96	180
97	60
98	80
112	930
113	50
126	100
127	690
128	40
