Mass Spectrum: 1,2-Cyclohexanediol, 1-(1-methylethyl)-, cis-
Formula: C9H18O2
CAS: 56335-93-4
Molecular weight: 158
m/z	intensity
39	100
40	10
41	530
42	50
43	900
44	50
45	30
47	10
51	10
53	20
54	10
55	330
56	30
57	100
58	20
59	10
65	10
67	140
68	20
69	600
70	260
71	200
72	10
73	20
77	10
78	10
79	230
80	20
81	60
82	20
83	40
84	50
85	30
86	100
87	10
91	10
93	10
95	20
96	40
97	640
98	100
99	210
100	10
107	30
111	20
112	10
114	20
115	999
116	60
122	10
125	40
140	60
141	10
143	10
158	40
