Mass Spectrum: 1,3-Dioxolane-4-methanol, 2-(1-iodoethyl)-
Formula: C6H11IO3
CAS: 5634-39-9
Molecular weight: 258
m/z	intensity
14	3
15	25
19	17
26	16
27	108
29	301
30	45
31	297
32	12
33	3
37	5
38	16
39	263
40	61
41	810
42	109
43	260
44	97
45	414
46	10
47	9
53	10
54	5
55	70
56	19
57	999
58	104
59	124
60	12
61	15
69	11
70	29
71	113
72	7
73	75
74	39
75	476
76	17
77	3
81	1
82	3
83	24
85	18
86	5
87	199
88	13
89	14
99	159
100	11
101	93
102	7
103	5
113	38
114	1
116	4
117	51
118	4
127	73
128	27
129	9
130	11
131	306
132	19
133	3
139	2
140	4
141	44
142	20
153	13
154	1
155	21
167	22
168	23
169	98
170	20
171	49
183	12
184	10
185	10
197	5
199	8
226	31
227	230
228	13
240	5
258	29
259	1
