Mass Spectrum: Methyl 3,6-di-O-acetyl-2-deoxy-4-O-methyl-2-(N-methylacetamido)-.alpha.-D-glucopyranoside
Formula: C15H25NO8
CAS: 56341-53-8
Molecular weight: 347
m/z	intensity
43	699
44	49
45	19
58	9
59	49
69	49
70	70
71	179
72	95
73	419
74	109
81	37
82	34
83	37
84	44
86	73
87	269
94	169
95	54
96	34
97	41
98	479
99	79
100	179
110	54
111	47
112	179
115	999
116	149
122	22
124	28
126	139
128	139
129	99
130	129
142	609
152	28
153	15
154	109
155	28
156	15
157	159
158	31
168	64
169	64
170	31
171	76
172	64
182	60
183	12
184	18
185	12
186	24
195	7
196	15
198	3
200	5
214	28
215	18
224	12
227	2
228	31
242	209
256	99
274	209
284	6
287	2
288	2
315	4
316	6
348	0
