Mass Spectrum: Methyl 3,4-di-O-acetyl-2-deoxy-6-O-methyl-2-(N-methylacetamido)-.alpha.-D-glucopyranoside
Formula: C15H25NO8
CAS: 56341-54-9
Molecular weight: 347
m/z	intensity
45	399
70	129
71	179
72	259
73	699
86	99
87	199
98	749
99	179
100	79
101	49
102	159
103	69
112	279
113	19
114	49
115	999
116	99
140	39
142	49
143	69
144	39
154	249
155	99
169	39
170	129
171	19
172	39
183	15
184	29
185	9
186	49
199	9
214	109
215	39
228	4
242	2
246	2
256	4
274	29
302	5
