Mass Spectrum: Propanoic acid, 2-(hydroxyimino)-, methyl ester
Formula: C4H7NO3
CAS: 5634-53-7
Molecular weight: 117
m/z	intensity
12	7
13	7
14	30
15	587
25	17
26	28
27	84
28	199
29	119
30	87
31	210
32	17
33	7
38	28
39	40
40	119
41	80
42	290
43	31
44	19
45	16
50	3
52	7
53	16
54	38
55	26
56	28
57	196
58	580
59	98
60	14
81	7
82	7
85	999
86	171
87	21
117	217
118	17
119	5
