Mass Spectrum: 2,9-Dithiadecane
Formula: C8H18S2
CAS: 56348-40-4
Molecular weight: 178
m/z	intensity
54	130
55	520
61	999
67	250
75	80
81	90
82	420
83	220
87	120
115	80
130	80
131	90
178	110
