Mass Spectrum: 1H-Pyrazole, 1-methyl-3-vinyl-
Formula: C6H8N2
CAS: 56342-53-1
Molecular weight: 108
m/z	intensity
26	39
27	92
29	20
40	185
42	70
43	143
52	93
53	121
54	120
55	75
63	44
65	91
66	55
67	36
68	45
77	23
78	17
79	32
80	158
81	97
82	37
92	10
93	52
105	12
106	18
107	403
108	999
109	120
