Mass Spectrum: Thiourea, 2-cyano-1,3-dihexyl-
Formula: C14H26N2S2
CAS: 56342-27-9
Molecular weight: 286
m/z	intensity
33	22
34	24
35	8
36	8
37	4
39	182
40	293
41	576
42	126
43	999
44	63
45	61
46	37
47	62
48	3
49	4
50	7
51	12
52	9
53	36
55	307
56	124
57	104
58	19
59	32
60	63
61	32
62	6
63	5
64	5
65	8
66	3
67	22
68	10
69	51
70	9
71	9
72	6
73	17
74	7
75	8
76	17
77	14
78	11
79	10
80	3
81	12
82	12
83	86
84	145
85	298
86	22
87	46
88	19
89	9
90	5
91	20
92	4
93	13
94	4
95	5
97	35
98	7
99	4
100	6
101	12
102	3
103	8
104	8
105	14
106	3
107	2
108	1
109	3
110	11
111	13
112	3
113	7
114	8
115	30
116	41
117	271
118	81
119	64
120	9
121	5
123	1
125	8
126	4
127	18
128	9
129	26
130	3
132	67
133	5
134	6
135	1
136	0
139	0
140	0
141	3
142	5
143	3
144	4
145	16
146	29
147	3
148	4
149	0
150	1
152	0
153	0
155	2
159	5
160	11
161	2
162	0
164	1
165	0
167	7
169	348
170	33
171	17
172	2
173	2
174	1
175	2
176	0
177	0
178	1
179	0
183	0
187	0
191	0
192	0
193	2
194	0
201	57
202	10
203	16
204	2
205	2
206	1
207	0
216	8
217	0
218	0
229	2
234	0
257	1
271	1
285	0
286	5
287	0
288	0
