Mass Spectrum: 1,2-Cyclohexanediol, 1,2-diethyl-
Formula: C10H20O2
CAS: 56363-86-1
Molecular weight: 172
m/z	intensity
39	30
41	130
42	10
43	230
45	10
53	20
55	280
56	20
57	380
58	20
59	10
67	80
68	10
69	180
70	30
71	30
72	110
73	30
75	10
79	10
81	50
82	180
83	70
84	80
85	999
86	70
93	10
95	10
96	10
97	220
98	310
99	40
107	20
111	70
112	10
113	10
125	600
126	50
127	10
143	120
144	10
154	80
155	10
172	150
173	10
