Mass Spectrum: Cholest-5-en-3-ol, 24-propylidene-, (3.beta.)-
Formula: C30H50O
CAS: 56362-45-9
Molecular weight: 426
m/z	intensity
40	98
41	494
42	91
43	361
44	279
45	15
50	7
51	15
52	7
53	104
54	30
55	999
56	242
57	283
58	22
59	3
60	7
63	3
64	3
65	33
66	15
67	276
68	73
69	830
70	74
71	48
72	7
73	7
76	3
77	98
78	22
79	265
80	45
81	412
82	136
83	206
84	41
85	45
86	15
87	3
91	310
92	73
93	293
94	82
95	355
96	56
97	166
98	22
99	11
100	15
103	18
104	18
105	316
106	76
107	266
108	74
109	160
110	33
111	83
112	22
113	7
114	3
115	26
116	15
117	98
118	45
119	182
120	102
121	146
122	41
123	81
124	33
125	22
126	3
127	7
128	26
129	52
130	26
131	143
132	45
133	158
134	48
135	102
136	30
137	45
138	18
139	3
141	18
142	15
143	119
144	52
145	237
146	69
147	143
148	37
149	56
150	18
151	33
152	15
153	7
154	3
155	18
156	22
157	82
158	108
159	166
160	70
161	130
162	33
163	48
164	15
165	15
166	3
167	7
168	3
169	30
170	15
171	73
172	30
173	84
174	33
175	69
176	52
177	26
178	11
179	3
181	7
182	3
183	18
184	11
185	56
186	26
187	52
188	30
189	45
190	18
191	15
192	3
193	3
195	3
197	41
198	15
199	79
200	22
201	41
202	33
203	45
204	11
205	3
207	18
208	3
209	3
211	141
212	37
213	158
214	52
215	48
216	18
217	22
218	11
219	18
220	3
225	33
226	15
227	45
228	56
229	305
230	83
231	96
232	37
233	7
239	26
240	15
241	22
242	11
243	18
244	15
245	18
246	22
247	3
253	69
254	30
255	67
256	22
257	22
258	22
259	7
264	3
267	15
268	7
269	7
270	22
271	124
272	56
273	15
274	3
281	364
282	96
283	30
284	3
285	11
286	7
287	7
295	7
296	155
297	45
298	22
299	251
300	83
301	11
312	15
313	15
314	999
315	245
316	30
317	3
341	3
393	18
394	7
408	18
409	7
411	15
412	7
414	3
426	56
427	18
428	3
