Mass Spectrum: Cholesta-5,24-diene-3,20-diol, (3.beta.,20R)-
Formula: C27H44O2
CAS: 56362-84-6
Molecular weight: 400
m/z	intensity
40	101
41	474
42	10
43	676
44	40
54	50
55	353
56	30
57	60
58	80
59	10
67	212
68	50
69	626
70	50
71	303
77	50
78	10
79	171
80	50
81	323
82	444
83	151
84	30
91	161
92	30
93	242
94	101
95	303
96	60
97	50
105	202
106	40
107	202
108	80
109	999
110	363
111	50
117	50
118	20
119	131
120	70
121	151
122	40
123	60
125	30
126	10
127	232
128	20
129	30
130	10
131	90
132	30
133	151
134	60
135	161
136	30
137	20
138	20
143	70
144	20
145	161
146	50
147	131
148	40
149	40
157	50
158	30
159	191
160	60
161	80
162	40
163	60
171	30
172	20
173	60
174	10
175	60
176	20
177	20
185	60
186	10
187	30
188	10
189	40
190	10
197	20
198	10
199	40
200	10
201	20
203	10
211	50
212	10
213	60
214	20
215	40
216	10
217	20
225	10
227	20
228	10
229	50
230	20
231	20
239	20
240	10
241	80
242	10
253	50
254	10
255	141
256	171
257	60
258	30
259	20
267	40
270	40
271	898
272	272
273	70
274	20
281	60
282	40
283	10
285	50
286	10
297	10
298	30
299	282
300	252
301	50
314	20
315	10
316	10
317	181
318	40
382	242
383	60
384	60
385	50
