Mass Spectrum: Ethanone, 1-(octahydro-1H-inden-1-yl)-, (1.alpha.,3a.alpha.,7a.beta.)-
Formula: C11H18O
CAS: 56362-32-4
Molecular weight: 166
m/z	intensity
40	20
41	500
42	60
43	999
44	40
45	20
50	20
51	50
52	30
53	160
54	100
55	230
56	20
57	20
58	10
59	10
63	20
64	10
65	50
66	30
67	380
68	50
69	80
70	20
71	370
72	20
77	80
78	30
79	180
80	70
81	630
82	50
83	10
84	30
85	20
91	60
92	30
93	80
94	30
95	70
96	200
97	20
98	10
105	20
106	20
107	20
108	370
109	50
110	10
119	30
120	10
121	40
122	20
123	180
124	20
133	20
137	10
138	10
148	150
149	30
151	40
152	10
166	70
167	20
