Mass Spectrum: Ergosta-9(11),20(22)-diene-3,6-diol, diacetate, (3.beta.,5.alpha.,6.alpha.)-
Formula: C32H50O4
CAS: 56362-37-9
Molecular weight: 498
m/z	intensity
41	313
42	20
43	888
44	181
53	101
54	10
55	555
56	50
57	323
67	373
68	232
69	404
70	70
71	525
72	30
73	212
77	121
78	40
79	313
80	50
81	999
82	353
83	333
84	141
85	101
91	353
92	60
93	404
94	131
95	494
96	454
97	191
105	454
106	90
107	272
108	141
109	717
110	111
111	70
115	70
116	30
117	161
118	80
119	363
120	111
121	313
122	80
123	131
124	50
125	40
127	121
128	70
129	171
130	101
131	373
132	111
133	151
134	40
135	111
137	101
141	111
142	101
143	343
144	101
145	333
146	80
147	151
148	40
152	141
153	40
154	30
155	212
156	101
157	303
158	141
159	151
160	40
161	50
165	60
166	20
167	60
168	50
169	323
170	101
171	202
172	60
173	60
179	40
180	40
181	161
182	80
183	272
184	80
185	121
186	70
187	40
191	60
193	50
194	30
195	474
196	141
197	303
198	80
199	101
209	404
210	343
211	757
212	272
213	303
214	40
221	90
222	30
223	181
224	121
225	272
226	161
227	303
228	60
237	70
238	90
239	60
246	80
247	20
248	10
249	30
251	202
252	80
253	90
254	30
266	30
267	20
268	60
269	20
270	70
271	141
272	90
273	121
277	40
278	20
279	101
284	40
285	242
286	80
287	30
292	20
293	50
294	101
295	40
296	20
297	20
298	111
299	30
307	70
308	20
311	121
312	70
313	30
315	151
316	30
337	30
354	70
355	80
356	30
361	10
362	10
363	575
364	161
365	30
378	626
379	212
438	161
439	50
497	10
498	20
