Mass Spectrum: Pregn-9(11)-en-20-one, 3,6-dihydroxy-, (3.beta.,5.alpha.,6.alpha.,17.alpha.)-
Formula: C21H32O3
CAS: 56362-34-6
Molecular weight: 332
m/z	intensity
42	220
43	999
44	20
53	90
55	180
57	40
58	120
65	30
66	10
67	150
68	20
69	50
71	150
77	90
78	30
79	160
80	30
81	270
82	20
83	40
84	30
85	260
86	30
91	200
92	30
93	160
94	40
95	770
96	50
97	30
105	230
106	60
107	120
108	30
109	50
111	20
115	40
116	20
117	90
118	40
119	100
120	70
121	80
122	20
123	90
124	30
128	40
129	60
130	40
131	120
132	60
133	100
134	20
135	60
136	20
137	30
141	50
142	40
143	100
144	50
145	130
146	30
147	60
148	20
149	30
155	70
156	20
157	70
158	50
159	80
160	20
161	30
169	60
170	30
171	60
172	90
173	90
174	50
175	30
183	30
184	20
185	30
187	20
195	40
197	30
199	20
209	20
211	220
212	40
213	20
214	30
215	20
216	40
223	20
225	30
226	30
227	30
229	140
230	450
231	80
238	10
239	30
241	50
242	20
243	30
244	40
253	20
255	30
256	40
257	30
259	20
261	20
263	70
264	20
271	70
272	20
281	190
282	50
296	60
297	30
299	190
300	50
314	130
315	30
317	30
332	100
333	30
