Mass Spectrum: Zinc, .mu.4-oxohexakis[.mu.-(propanoato-O:O')]tetra-
Formula: C18H30O13Zn4
CAS: 56377-86-7
Molecular weight: 710
m/z	intensity
36	140
39	48
41	40
44	190
46	110
52	140
55	999
58	35
67	700
70	300
74	250
77	290
79	410
82	180
86	570
104	350
132	30
135	10
137	20
140	40
204	20
206	60
208	20
210	35
211	10
214	20
242	40
244	25
246	20
262	70
278	20
279	50
280	48
284	80
285	120
288	60
290	40
292	30
295	20
296	50
298	62
300	70
302	40
304	30
305	20
307	20
311	15
312	30
350	28
354	50
355	65
357	50
360	20
367	30
370	40
371	50
373	50
375	50
377	40
378	28
381	15
382	15
421	120
423	140
425	200
428	80
429	260
431	15
432	70
433	40
436	30
454	30
455	30
456	50
457	50
458	20
460	38
461	15
505	30
507	80
509	115
510	120
513	150
515	70
517	30
520	30
565	20
566	40
569	40
571	50
573	30
575	20
578	22
580	50
583	80
585	50
589	34
591	15
629	60
631	250
632	420
634	690
639	700
641	250
644	100
645	60
685	20
687	35
689	62
690	62
691	90
693	150
695	100
697	100
700	50
701	20
702	20
