Mass Spectrum: Heptadecanolide
Formula: C17H32O2
CAS: 5637-97-8
Molecular weight: 268
m/z	intensity
27	37
28	21
29	119
30	3
31	8
39	100
40	23
41	690
42	197
43	367
44	20
45	24
50	4
51	11
53	75
54	115
55	999
56	261
57	279
58	53
59	30
60	61
61	30
62	9
63	17
65	13
66	17
67	210
68	181
69	557
70	185
71	153
72	11
73	130
74	21
75	5
79	73
80	47
81	297
82	361
83	546
84	273
85	100
86	20
87	64
88	10
89	31
90	4
94	61
95	247
96	383
97	476
98	289
99	54
100	41
101	66
102	20
108	47
109	143
110	169
111	192
112	84
113	55
114	64
115	45
116	63
123	105
124	111
125	93
126	40
127	57
128	18
129	74
130	14
137	81
138	82
139	50
140	31
141	16
142	7
143	24
144	8
145	18
148	24
151	58
152	64
153	34
154	13
155	18
156	6
157	19
158	12
161	22
164	8
165	36
166	50
167	17
168	9
169	15
171	13
172	15
175	12
178	8
179	24
180	22
181	12
182	3
183	6
185	20
186	12
188	8
193	13
194	8
195	7
196	3
199	8
200	4
201	20
206	26
207	15
208	45
209	12
211	3
217	7
221	9
222	16
223	2
225	15
232	5
250	72
251	13
268	56
269	12
