Mass Spectrum: Beryllium, hexakis[.mu.-(2,2-dimethylpropanoato-O:O')]-.mu.4-oxotetra-
Formula: C30H54Be4O13
CAS: 56377-82-3
Molecular weight: 658
m/z	intensity
27	570
37	440
42	999
67	50
85	60
168	18
185	10
204	13
255	12
273	10
290	30
330	20
343	10
347	60
352	30
354	20
370	130
455	10
472	13
500	20
545	10
557	70
