Mass Spectrum: Beryllium, hexakis[.mu.-(benzeneacetato-O:O')]-.mu.4-oxotetra-
Formula: C48H42Be4O13
CAS: 56377-80-1
Molecular weight: 862
m/z	intensity
38	85
41	161
43	292
46	151
50	252
52	282
56	65
57	15
60	65
62	222
65	459
67	222
70	176
85	858
88	999
90	595
119	909
140	50
274	40
275	10
278	10
295	50
330	20
339	10
341	10
352	70
372	18
374	24
418	25
437	15
440	12
447	171
473	116
638	20
652	15
695	40
708	20
713	28
728	505
