Mass Spectrum: 3-Phenylheptanoic acid
Formula: C13H18O2
CAS: 5638-30-2
Molecular weight: 206
m/z	intensity
26	4
27	94
29	85
31	5
38	5
39	79
40	8
41	121
42	11
43	72
44	4
45	24
50	21
51	84
52	27
53	27
54	4
55	29
56	8
57	28
60	8
62	7
63	29
64	9
65	59
66	8
67	9
68	10
69	21
70	4
71	6
73	6
74	8
75	20
76	17
77	215
78	118
79	221
80	17
81	9
82	4
83	5
85	5
86	5
87	5
88	4
89	21
90	7
91	949
92	95
93	8
95	4
97	4
101	7
102	29
103	143
104	311
105	261
106	27
107	999
108	97
109	9
110	4
115	79
116	24
117	171
118	120
119	31
120	7
121	22
127	11
128	21
129	18
130	9
131	49
132	8
133	11
134	4
141	7
143	4
144	4
145	25
146	581
147	306
148	41
149	237
150	59
151	7
159	5
160	15
161	4
163	21
164	4
165	5
167	5
177	5
188	6
206	320
207	50
208	6
