Mass Spectrum: Methyl 3-O-acetyl-2-deoxy-4,6-di-O-methyl-2-(N-methylacetamido)-.alpha.-D-glucofuranoside
Formula: C14H25NO7
CAS: 56389-83-4
Molecular weight: 319
m/z	intensity
42	299
43	849
44	79
45	349
55	39
56	89
57	59
58	29
59	69
68	39
69	54
70	69
71	349
72	149
73	469
74	99
75	74
81	29
82	29
83	34
84	34
85	52
86	89
87	129
88	49
94	119
95	39
96	29
97	39
98	499
99	49
100	199
101	429
102	139
115	999
116	34
142	699
143	119
144	69
145	36
154	39
155	44
156	19
157	89
158	42
159	12
168	39
169	209
170	32
179	29
186	34
187	34
196	4
200	16
214	149
215	24
226	12
228	22
246	109
260	3
274	5
283	2
319	5
320	7
