Mass Spectrum: 2-Amino-5-p-tosylamido-p-benzoquinone
Formula: C13H12N2O4S
CAS: 56393-60-3
Molecular weight: 292
m/z	intensity
41	496
42	465
43	69
44	18
45	22
50	44
51	81
52	54
53	57
54	151
55	16
61	4
62	30
63	116
65	345
66	40
68	671
69	85
70	70
71	5
74	4
75	5
76	4
77	37
78	17
79	15
80	3
81	22
82	4
84	3
89	102
91	999
92	117
93	10
94	3
95	11
103	3
105	30
106	7
107	16
108	14
109	69
110	5
111	18
130	12
131	24
132	4
137	241
138	23
139	43
140	7
141	3
145	3
155	143
156	17
157	14
158	9
160	3
169	8
172	17
173	8
174	60
175	8
183	18
184	4
185	7
186	4
199	18
200	37
201	140
202	18
211	15
213	74
214	5
227	22
228	161
229	26
275	8
292	212
293	58
294	22
