Mass Spectrum: 2-Acetamido-5-p-tosylamido-p-benzoquinone
Formula: C15H14N2O5S
CAS: 56393-59-0
Molecular weight: 334
m/z	intensity
41	102
42	42
43	999
44	21
45	8
49	7
50	15
51	38
52	22
53	30
54	34
55	4
62	8
63	56
64	7
65	162
66	16
68	267
69	31
70	21
71	1
75	1
76	5
77	18
78	8
79	8
80	6
81	8
82	1
86	3
89	54
91	482
92	49
93	4
94	5
95	6
97	1
105	13
106	1
107	8
108	9
109	20
110	7
111	5
121	1
130	3
131	12
132	1
134	3
137	124
138	8
139	20
140	1
145	2
151	23
155	98
156	7
157	12
158	6
160	1
162	7
163	5
169	7
172	13
173	1
174	47
175	6
179	43
180	3
183	12
184	5
185	7
199	10
200	16
201	63
202	10
211	11
213	38
214	7
227	13
228	74
229	12
242	10
243	16
270	7
275	4
292	76
293	18
294	6
317	3
334	92
335	21
336	7
