Mass Spectrum: 2,3-Di[p-chlorophenyl]-5,8-dimethoxy-6-acetamidoquinoxaline
Formula: C24H19Cl2N3O3
CAS: 56393-33-0
Molecular weight: 467
m/z	intensity
42	24
43	999
44	16
45	13
47	15
49	8
50	8
51	6
52	23
53	39
54	12
55	9
56	1
57	3
59	10
63	24
64	11
65	34
66	11
68	69
69	15
70	5
73	5
75	33
76	22
77	25
78	17
79	11
80	12
81	1
82	12
84	3
86	2
87	8
88	5
89	3
90	9
91	10
92	11
93	19
94	10
95	6
97	1
99	5
100	3
101	7
102	11
103	3
104	5
105	3
106	13
107	10
108	1
109	4
111	24
113	11
114	1
115	3
119	10
120	1
121	5
123	13
125	15
126	6
127	6
133	5
137	33
138	21
139	17
140	10
141	5
145	1
147	2
149	5
150	6
152	11
153	1
154	2
160	1
161	1
162	9
163	7
164	5
165	5
173	4
174	6
175	10
176	30
177	6
186	7
187	6
188	4
189	8
190	7
199	7
200	5
201	11
202	13
203	3
205	2
210	1
211	1
212	7
214	2
224	1
226	6
227	4
228	3
229	4
230	9
232	1
235	4
237	19
239	10
242	2
246	16
247	2
248	13
254	1
261	1
263	6
264	1
265	2
267	1
269	1
271	2
272	2
277	1
284	1
297	1
298	1
299	2
300	4
302	1
303	1
314	1
315	1
316	1
318	1
325	1
329	1
332	2
346	4
353	1
354	5
355	1
356	2
360	8
361	1
366	3
368	3
375	1
378	1
380	9
381	18
382	15
383	10
384	8
385	5
386	1
394	5
395	15
396	14
397	18
398	12
399	13
400	8
401	3
406	1
407	1
408	11
409	5
410	162
411	27
412	108
413	26
414	18
415	7
422	6
424	42
426	41
427	8
428	6
436	6
437	6
438	65
439	15
440	52
441	14
442	9
452	13
453	5
454	9
467	134
468	42
469	95
470	29
471	19
472	5
