Mass Spectrum: 3-Chloro-6-[3-dimethylaminopropylamino]pyridazine
Formula: C9H15ClN4
CAS: 56392-93-9
Molecular weight: 214
m/z	intensity
41	47
42	150
43	45
44	83
45	23
46	5
47	5
48	2
49	2
50	5
51	17
52	23
53	7
54	11
55	10
56	45
57	37
58	999
59	51
60	2
61	2
62	4
63	2
64	7
65	5
66	4
67	4
68	5
69	3
70	85
71	26
72	289
73	51
74	2
75	15
76	2
77	4
78	6
79	38
80	12
81	2
82	5
83	8
84	287
85	65
86	32
87	3
88	11
89	1
90	2
91	1
92	3
93	2
94	1
95	0
97	0
98	0
99	7
100	2
101	2
102	1
105	3
106	5
107	4
108	15
109	2
113	2
114	7
115	18
116	7
117	6
118	2
120	2
121	0
128	2
129	4
130	7
131	2
132	3
134	18
135	6
136	12
137	1
141	2
142	24
143	139
144	18
145	47
146	3
150	0
154	6
155	0
156	31
157	3
158	9
159	0
168	6
169	125
170	48
171	45
172	16
173	3
175	1
177	4
178	0
179	2
199	1
213	3
214	66
215	74
216	21
217	24
218	2
