Mass Spectrum: Quinoxaline, 5,8-dimethoxy-6-((2-(dimethylamino)ethyl)amino)-
Formula: C14H20N4O2
CAS: 56393-39-6
Molecular weight: 276
m/z	intensity
41	64
42	80
43	57
44	40
45	7
46	1
47	1
49	4
50	11
51	17
52	47
53	27
54	10
56	11
57	15
58	999
59	36
60	23
61	12
63	15
64	1
65	15
67	3
68	25
70	9
71	14
72	19
73	4
74	1
75	1
76	17
77	6
78	21
79	19
80	11
81	1
82	9
84	5
85	1
86	9
88	5
89	11
90	3
91	9
92	6
93	5
94	10
95	9
96	1
97	1
98	2
99	3
100	1
101	0
102	7
103	9
104	26
105	11
106	5
107	6
109	5
110	0
111	1
113	0
114	2
115	4
116	5
117	12
118	5
119	6
120	1
121	3
122	1
123	1
124	3
125	3
126	0
127	2
128	4
129	5
130	1
131	12
132	10
133	8
134	5
135	2
137	0
139	1
141	0
142	1
143	3
144	5
146	12
147	6
149	10
150	0
151	1
152	0
153	8
155	2
156	4
157	0
158	4
159	7
160	10
161	32
162	1
163	10
165	3
166	1
167	0
168	0
169	0
170	5
171	1
172	6
173	4
174	6
175	5
176	37
177	2
178	2
179	0
180	0
182	0
184	2
185	3
186	3
187	4
188	20
189	9
190	47
191	2
193	3
194	0
195	2
198	1
200	5
201	13
202	4
203	35
205	34
207	1
211	0
212	0
213	1
214	1
215	0
216	28
217	6
218	62
219	6
220	0
222	0
226	0
227	0
228	2
229	1
230	5
231	23
232	0
245	2
246	4
247	0
260	0
261	3
262	0
274	3
275	11
276	97
277	14
278	0
