Mass Spectrum: Quinoxaline, 2,3-bis(4-chlorophenyl)-5,8-dimethoxy-6-((2-(dimethylamino)ethyl)-
Formula: C26H26Cl2N4O2
CAS: 56393-45-4
Molecular weight: 496
m/z	intensity
41	17
42	31
43	14
44	19
45	2
47	0
49	4
50	7
51	15
52	12
53	22
54	6
55	5
56	9
58	999
59	33
60	1
62	2
63	12
64	10
65	18
66	6
67	1
68	19
69	4
70	3
71	7
72	4
73	0
75	18
76	11
77	12
78	10
79	6
80	7
81	0
82	8
84	5
85	1
86	3
87	2
88	2
89	2
90	6
91	9
92	8
93	11
94	8
95	6
97	2
99	3
100	3
101	2
102	6
103	4
104	4
105	2
106	11
107	7
108	5
111	11
113	7
114	2
115	8
116	1
117	2
119	7
120	2
121	6
122	1
123	7
125	9
126	3
127	6
129	3
130	1
131	1
132	2
133	3
134	4
135	2
137	17
138	12
139	7
140	6
141	5
143	1
144	2
145	0
146	1
147	2
148	2
149	2
150	3
151	3
152	4
153	1
154	5
155	2
156	3
158	0
160	2
161	2
162	4
163	4
164	3
165	2
166	1
167	0
169	3
170	2
172	0
173	2
174	5
175	6
176	12
177	3
178	1
179	1
180	0
181	0
186	7
187	6
188	14
189	1
190	3
191	1
192	0
195	2
197	4
199	5
200	2
201	6
202	3
203	1
204	1
205	4
206	3
210	1
211	0
212	5
213	2
214	5
215	2
216	0
217	0
224	0
225	0
226	2
227	2
228	2
229	1
230	2
232	1
235	1
237	5
238	1
239	1
240	0
241	1
242	1
243	1
246	6
247	1
248	4
253	0
255	1
263	2
264	1
265	1
266	1
267	0
269	0
272	1
276	1
289	0
299	1
302	0
315	0
325	1
346	1
354	1
366	1
367	2
368	1
369	1
378	1
379	2
380	3
381	7
382	3
383	6
384	2
385	1
394	1
395	3
396	5
397	3
398	3
399	1
406	1
407	1
408	8
410	52
411	10
412	25
413	6
414	5
415	1
420	0
422	3
423	2
424	5
425	36
426	6
427	32
428	6
429	4
436	1
437	5
438	19
439	7
440	11
441	2
442	1
496	31
497	10
498	23
499	7
500	4
501	0
