Mass Spectrum: 2,3-Di[p-chlorostyryl]-5,8-dimethoxy-6-aminoquinoxaline
Formula: C26H21Cl2N3O2
CAS: 56393-62-5
Molecular weight: 477
m/z	intensity
41	469
43	171
44	184
47	37
48	29
49	186
51	239
52	219
53	392
55	132
56	17
57	18
58	16
60	20
63	106
64	126
65	171
66	20
67	59
68	537
69	32
70	59
73	14
74	55
75	146
77	290
78	151
79	164
80	103
81	14
82	67
84	90
86	77
87	13
89	166
91	126
92	48
93	55
94	45
95	74
96	16
97	16
98	18
99	45
101	177
102	132
103	26
104	26
105	14
106	52
107	34
108	15
109	33
110	19
111	44
112	55
113	77
114	129
115	118
116	15
117	25
119	33
120	46
122	19
123	32
124	13
125	999
127	441
128	90
129	29
131	13
132	23
133	36
136	119
137	44
138	15
139	197
140	75
141	51
143	17
144	14
145	20
146	14
147	46
149	241
151	179
152	93
153	99
154	29
157	56
158	70
160	37
161	14
162	76
163	45
164	140
165	46
166	42
167	61
170	14
172	15
173	20
174	32
175	81
176	54
177	40
178	49
179	23
180	66
182	39
183	41
187	26
188	167
189	22
190	17
191	18
192	24
195	54
196	22
198	16
199	42
200	19
201	27
203	15
204	18
205	31
206	49
213	46
214	26
215	47
216	15
218	15
219	15
224	15
225	43
226	44
227	86
229	37
235	103
237	79
238	17
239	34
240	18
242	148
249	13
250	19
251	14
252	43
262	31
278	13
280	30
281	13
297	19
301	14
308	15
309	26
310	86
312	50
315	16
336	52
337	87
338	48
339	34
340	174
342	77
348	16
349	17
352	33
354	14
355	94
357	18
461	32
462	391
463	115
464	276
465	73
466	66
476	16
477	509
478	141
479	279
480	110
481	42
