Mass Spectrum: 2,3-Diphenyl-5,8-dimethoxy-6-N-[2-dimethylaminoethyl]aminoquinoxaline
Formula: C26H28N4O2
CAS: 56393-43-2
Molecular weight: 428
m/z	intensity
42	34
43	13
44	13
45	2
49	6
50	4
51	11
52	4
53	10
54	4
55	3
56	7
58	999
59	36
60	0
61	0
62	2
63	6
64	5
65	3
66	2
67	2
68	4
69	1
70	4
71	8
72	6
74	1
75	3
76	5
77	22
78	7
79	4
80	2
81	0
82	5
84	2
85	2
86	1
88	2
89	3
90	4
91	5
92	4
93	1
94	1
95	1
96	0
101	0
102	1
103	6
104	11
105	5
106	3
107	3
108	1
111	0
113	0
114	1
115	3
116	1
117	1
118	2
119	3
120	0
121	1
122	0
125	1
126	3
127	3
128	2
129	1
130	0
131	1
132	2
133	2
134	2
139	2
140	2
141	1
147	0
148	0
149	0
150	1
151	3
152	5
153	3
154	1
155	1
156	0
157	0
161	0
163	1
164	0
165	6
166	2
167	2
168	1
169	1
170	2
175	1
176	8
177	8
178	15
179	5
180	1
181	1
182	0
185	1
188	1
189	1
190	1
191	1
192	1
193	1
194	1
195	1
196	1
201	1
202	3
203	5
204	4
205	1
206	1
207	1
208	0
214	0
215	1
216	1
217	0
221	1
222	1
224	1
227	0
228	1
229	2
230	2
231	2
232	1
233	0
235	1
236	0
240	1
241	1
242	1
243	1
246	0
248	0
249	0
251	1
253	1
254	1
255	2
256	2
257	1
258	0
262	2
266	1
267	2
268	1
269	2
270	1
271	0
279	1
280	0
281	1
282	1
283	2
284	1
285	2
286	1
294	0
295	1
296	0
297	3
298	3
299	6
300	1
309	1
310	2
311	7
312	7
313	29
314	7
315	1
322	1
323	1
324	1
325	3
326	4
327	11
328	21
329	5
330	1
336	1
338	4
339	4
340	33
341	12
342	6
343	1
350	0
352	5
353	1
354	14
355	12
356	5
357	2
358	1
366	0
368	7
369	39
370	137
371	31
372	5
383	1
384	3
385	2
395	1
397	2
411	1
413	1
415	0
426	1
427	4
428	128
429	37
430	6
431	0
