Mass Spectrum: 2,3-Dimethyl-5,8-dimethoxy-6-acetamidoquinoxaline
Formula: C14H17N3O3
CAS: 56393-31-8
Molecular weight: 275
m/z	intensity
43	999
44	15
45	1
50	38
51	13
52	171
53	75
54	41
55	19
56	18
57	2
58	3
59	3
63	45
64	28
65	26
66	30
68	100
69	14
70	13
73	1
74	0
76	47
77	29
78	32
79	25
80	35
81	11
82	15
83	0
84	2
86	0
87	1
88	2
89	8
90	28
91	33
92	18
93	15
94	9
95	6
96	2
100	0
101	2
102	2
104	20
105	18
106	17
107	26
108	29
109	5
110	1
115	2
116	4
117	6
118	3
119	22
120	7
121	10
122	9
123	28
124	1
129	2
131	20
132	36
133	27
134	18
135	9
136	2
137	0
142	0
143	3
145	16
146	9
147	14
148	6
149	4
150	1
156	0
157	3
158	12
159	11
160	20
161	28
162	49
163	8
170	2
172	10
173	6
174	10
175	12
176	4
177	1
184	2
186	18
187	12
189	112
190	37
191	18
192	2
198	0
200	4
202	14
203	3
204	30
205	19
206	2
214	9
216	32
218	590
219	63
220	6
228	2
230	24
232	94
233	25
234	7
242	8
244	16
246	84
247	10
248	1
256	1
258	3
260	71
261	7
272	0
275	516
276	76
277	18
278	1
