Mass Spectrum: 2-Nonen-4-yne, (Z)-
Formula: C9H14
CAS: 56392-46-2
Molecular weight: 122
m/z	intensity
23	1
24	0
25	3
26	17
27	257
28	32
29	125
30	1
31	2
32	2
33	2
34	4
35	2
36	0
37	12
38	27
39	278
40	59
41	263
42	21
43	110
44	5
45	1
46	1
47	1
48	2
49	7
50	66
51	182
52	101
53	148
54	21
55	54
56	10
57	3
58	11
59	2
60	1
61	7
62	19
63	63
64	19
65	138
66	202
67	88
68	27
69	5
70	2
71	4
72	1
73	2
74	13
75	42
76	13
77	753
78	144
79	999
80	182
81	94
82	6
83	0
85	0
86	2
87	3
89	14
90	5
91	348
92	49
93	339
94	49
95	6
101	0
102	1
103	10
104	2
105	53
106	9
107	284
108	27
109	1
115	4
116	2
117	2
118	2
119	1
120	5
121	11
122	263
123	23
124	1
