Mass Spectrum: 4,4-Dimethyl-thiazolidine
Formula: C5H11NS
CAS: 56400-70-5
Molecular weight: 117
m/z	intensity
45	108
55	290
56	161
70	228
71	999
72	179
73	129
88	19
102	180
117	308
