Mass Spectrum: Furane-2(3H)-thione, 3-dimethylaminomethylene-5-phenyl-
Formula: C13H13NOS
CAS: 56429-06-2
Molecular weight: 231
m/z	intensity
33	7
34	3
35	0
36	1
37	21
38	79
39	277
40	56
41	176
42	999
43	99
44	106
45	200
46	32
47	40
49	19
50	245
51	483
52	61
53	50
54	21
55	39
56	20
57	31
58	32
59	15
60	19
61	43
62	65
63	108
64	39
65	52
66	98
67	72
68	42
69	186
70	38
71	31
72	17
73	26
74	130
75	101
76	120
77	824
78	91
79	25
80	44
81	97
82	534
84	84
85	48
86	35
87	53
88	35
89	60
90	21
91	52
92	20
93	38
94	67
96	88
97	20
98	42
99	63
100	34
101	36
102	70
103	36
104	20
105	180
106	23
108	10
109	11
110	34
111	44
112	18
113	45
114	83
115	285
116	85
117	17
119	11
121	148
122	17
123	12
124	30
125	23
126	183
127	104
128	163
129	66
130	14
131	11
132	4
133	2
134	25
135	4
136	2
138	7
139	10
140	44
141	21
142	17
143	15
144	18
145	24
146	22
147	103
148	13
149	8
150	4
151	1
152	5
153	13
154	39
155	56
156	24
157	26
158	139
159	70
160	260
161	46
162	12
163	2
165	0
166	1
167	5
168	23
170	213
171	42
172	18
173	19
174	6
175	9
176	2
179	0
180	2
181	4
182	5
183	12
184	7
186	19
187	72
188	326
189	48
190	20
191	2
192	0
195	1
196	4
197	11
198	38
199	8
200	13
201	13
202	36
204	16
205	0
213	0
214	5
215	10
216	30
217	5
218	2
224	0
227	0
228	7
231	828
232	116
233	38
234	5
235	0
