Mass Spectrum: Hepta-2,4-dienoic acid, methyl ester
Formula: C8H12O2
CAS: 56424-97-6
Molecular weight: 140
m/z	intensity
25	1
26	30
27	203
28	35
29	97
30	10
31	25
32	3
33	2
35	1
37	11
38	42
39	322
40	61
41	264
42	21
43	57
44	2
45	16
46	2
47	3
48	1
49	6
50	58
51	119
52	65
53	271
54	36
55	106
56	8
57	17
58	3
59	106
60	7
61	9
62	13
63	33
64	10
65	99
66	89
67	58
68	23
69	33
70	4
71	10
72	3
73	1
74	10
75	7
76	3
77	116
78	31
79	354
80	206
81	648
82	54
83	53
84	5
85	19
86	4
87	3
88	3
89	1
90	1
91	7
92	3
93	23
94	6
95	14
96	5
97	56
98	104
99	8
100	2
101	0
102	1
103	1
104	0
105	2
106	1
107	20
108	28
109	280
110	24
111	999
112	73
113	8
114	1
115	4
116	0
117	1
118	0
119	0
121	4
122	1
123	4
124	1
125	56
126	5
127	3
128	7
129	18
130	2
131	1
136	0
137	1
138	1
139	15
140	591
141	65
142	6
