Mass Spectrum: Benzamide, 3-methyl-N-[(phenylamino)thioxomethyl]-
Formula: C15H14N2OS
CAS: 56437-99-1
Molecular weight: 270
m/z	intensity
41	39
44	9
45	9
50	49
51	108
52	29
53	9
54	9
58	9
61	9
62	29
63	79
64	39
65	287
66	89
67	9
74	19
75	19
76	19
77	148
78	19
86	9
89	59
90	39
91	623
92	89
93	237
94	19
109	9
110	9
117	9
118	39
119	999
120	99
121	9
124	19
135	356
136	49
137	29
151	19
269	29
270	188
271	39
272	9
