Mass Spectrum: 1-Dodecen-1-ol, acetate
Formula: C14H26O2
CAS: 56438-08-5
Molecular weight: 226
m/z	intensity
28	40
29	10
30	90
39	20
41	120
42	30
43	999
44	40
45	10
53	10
54	30
55	90
56	30
57	280
58	20
66	20
67	70
68	110
69	50
70	40
71	50
72	10
81	60
82	220
83	70
84	20
85	20
86	20
87	30
95	60
96	150
97	40
98	20
99	10
100	10
109	30
110	50
111	10
123	20
124	30
137	10
138	30
166	40
184	20
226	10
