Mass Spectrum: 1,1-Dodecanediol, diacetate
Formula: C16H30O4
CAS: 56438-07-4
Molecular weight: 286
m/z	intensity
41	560
42	370
43	999
44	330
45	220
53	20
54	100
55	440
56	270
57	650
58	50
60	90
66	30
67	200
68	260
69	240
71	200
72	40
81	160
82	320
83	170
84	100
85	110
86	10
94	10
95	130
96	180
97	110
98	60
99	20
109	60
110	70
111	40
112	20
123	26
124	30
125	6
126	3
127	3
128	3
129	3
137	13
138	46
139	3
140	83
141	10
142	3
156	10
166	16
