Mass Spectrum: Germacyclohexane, 1,1-dichloro-
Formula: C5H10Cl2Ge
CAS: 56438-28-9
Molecular weight: 214
m/z	intensity
41	293
42	999
43	51
44	5
45	1
49	2
50	5
51	8
52	1
53	12
54	3
55	54
56	3
57	1
65	0
67	2
68	2
69	23
70	57
71	3
72	4
73	2
74	4
75	2
76	1
77	0
84	1
85	1
86	1
87	1
88	1
89	1
91	0
95	0
97	1
98	0
99	1
100	0
101	1
103	0
105	13
107	21
108	5
109	28
110	2
111	13
112	1
113	2
114	1
115	1
116	1
133	0
135	1
137	1
139	1
140	1
141	1
142	3
143	2
144	5
145	1
146	6
147	1
148	8
149	3
150	9
151	1
152	5
153	1
154	1
156	1
158	2
160	1
168	1
169	1
170	2
171	2
172	3
173	2
174	8
175	3
176	12
177	6
178	16
179	6
180	7
181	2
182	3
183	1
184	4
185	1
186	6
187	1
188	4
190	1
210	3
212	6
213	1
214	8
215	1
216	5
218	1
