Mass Spectrum: Benzamide, 3-chloro-N-[(phenylamino)carbonyl]-
Formula: C14H11ClN2O2
CAS: 56438-00-7
Molecular weight: 274
m/z	intensity
41	60
42	20
43	110
44	100
45	20
47	10
50	50
51	70
52	30
55	50
56	10
57	50
60	20
63	30
64	50
65	90
66	20
67	10
69	50
70	20
71	30
73	20
74	30
75	100
76	40
77	70
78	80
79	10
81	20
82	10
83	30
84	10
85	30
91	110
92	40
93	170
94	10
95	10
97	20
104	10
105	10
109	20
110	10
111	220
112	20
113	70
118	10
119	999
120	80
121	10
135	10
138	10
139	350
140	30
141	110
145	30
147	20
149	30
155	30
157	10
167	10
273	30
274	330
275	70
276	110
277	20
