Mass Spectrum: Pregnane-3,20-dione, 16-methylene-11,17,21-tris[(trifluoroacetyl)oxy]-, (5.alpha.,11.alpha.)-
Formula: C28H29F9O8
CAS: 56438-16-5
Molecular weight: 664
m/z	intensity
41	580
42	60
43	530
44	790
45	999
46	230
47	230
49	20
50	590
51	800
52	80
53	360
54	40
55	670
56	50
57	130
58	30
59	10
60	10
63	40
65	260
66	70
67	410
68	60
69	970
70	310
71	60
73	200
76	10
77	590
78	180
79	470
80	130
81	310
82	60
83	150
84	30
85	50
86	260
89	30
90	20
91	500
92	180
93	460
94	150
95	500
96	130
97	560
98	110
99	60
102	20
103	120
104	80
105	550
106	180
107	510
108	140
109	290
110	160
111	120
112	110
113	10
114	220
115	180
116	70
117	270
118	100
119	460
120	170
121	450
122	370
123	540
124	550
125	190
126	50
127	100
128	190
129	230
130	70
131	320
132	130
133	570
134	240
135	270
136	140
137	220
138	60
139	20
140	30
141	140
142	120
143	270
144	100
145	340
146	160
147	390
148	240
149	240
150	80
151	100
152	60
153	60
154	30
155	150
156	70
157	220
158	110
159	310
160	140
161	600
162	200
163	700
164	70
165	90
166	30
167	60
168	10
169	150
170	60
171	150
172	70
173	190
174	140
175	210
176	180
177	100
178	20
179	50
181	60
182	20
183	120
184	60
185	130
186	60
187	130
188	60
189	120
190	30
191	40
192	10
193	40
194	10
195	50
196	20
197	100
198	70
199	140
200	50
201	70
202	30
203	40
205	10
207	10
209	40
210	10
211	50
212	30
213	90
214	40
215	100
216	150
217	50
221	10
223	50
224	10
225	80
226	30
227	170
228	70
229	30
232	30
233	20
239	20
240	40
241	120
242	40
243	10
249	10
251	10
253	10
255	10
263	30
265	20
267	20
268	10
278	10
280	30
281	10
282	30
283	30
284	40
294	30
295	10
296	40
297	110
298	20
299	10
306	50
308	10
309	20
310	20
311	90
312	100
313	20
321	50
322	10
323	20
324	570
325	120
326	20
327	50
328	10
329	10
339	810
340	210
341	50
342	10
357	110
358	10
