Mass Spectrum: Germacyclopentane, 1-butyl-1-[2-(triethylgermyl)ethyl]-
Formula: C16H36Ge2
CAS: 56438-27-8
Molecular weight: 376
m/z	intensity
41	120
42	20
43	40
44	10
45	10
51	10
53	10
54	10
55	80
56	20
57	20
70	90
71	140
72	110
73	280
74	200
75	320
76	60
77	160
79	30
84	10
85	130
86	20
87	200
88	80
89	260
90	20
91	80
97	70
98	60
99	480
100	120
101	860
102	280
103	999
104	160
105	540
106	20
107	90
109	20
111	20
113	20
114	10
115	30
116	20
117	20
118	10
119	10
125	40
126	20
127	320
128	80
129	700
130	200
131	870
132	200
133	590
134	40
135	110
142	10
143	20
144	20
145	40
146	30
147	60
148	40
149	60
150	30
151	40
153	20
155	40
156	10
157	400
158	50
159	540
160	190
161	640
162	50
163	150
164	10
165	10
166	10
167	10
169	10
171	30
172	10
173	60
174	30
175	90
176	50
177	100
178	50
179	70
180	10
181	30
183	200
184	20
185	280
186	120
187	380
188	50
189	120
199	30
201	70
202	40
203	100
204	50
205	110
206	40
207	80
208	20
209	40
227	50
228	20
229	130
230	60
231	210
232	80
233	230
234	90
235	170
236	40
237	70
255	120
256	20
257	260
258	110
259	500
260	210
261	540
262	170
263	400
264	70
265	140
266	20
267	30
283	50
285	110
286	50
287	170
288	60
289	180
290	80
291	140
292	40
293	60
311	80
312	20
313	180
314	80
315	330
316	120
317	340
318	140
319	270
320	60
321	100
322	20
323	20
341	30
342	20
343	50
344	40
345	50
346	30
347	40
348	20
349	20
366	30
368	40
369	20
370	70
371	40
372	70
373	40
374	50
375	30
376	40
