Mass Spectrum: 1,3-Adamantanediacetamide
Formula: C14H22N2O2
CAS: 56432-73-6
Molecular weight: 250
m/z	intensity
39	233
41	346
42	154
44	999
45	18
46	7
50	13
51	46
52	34
53	77
54	33
55	112
56	31
57	18
59	371
60	35
61	3
62	4
63	17
65	88
66	27
67	51
68	13
69	18
70	11
71	2
72	5
73	3
75	7
77	154
78	46
79	116
80	21
81	20
82	11
83	7
84	3
85	3
86	3
89	9
91	333
92	55
93	72
94	12
95	10
96	6
97	5
98	5
99	6
100	6
101	2
102	4
103	23
104	34
105	107
106	23
107	23
108	6
109	2
110	4
112	4
113	8
115	22
116	10
117	30
118	10
119	23
120	7
121	4
122	2
127	3
128	7
129	8
130	6
131	24
132	12
133	33
134	6
136	45
137	6
143	2
144	3
145	12
146	28
147	23
148	9
149	24
150	10
159	2
160	2
161	4
162	2
163	2
164	2
174	4
175	5
176	4
188	2
190	2
191	2
192	10
193	2
204	3
205	37
206	9
207	2
232	2
233	6
250	31
251	4
