Mass Spectrum: Silacycloheptane-4-carbonitrile, 5-imino-7-methyl-1,1-diphenyl-
Formula: C20H22N2Si
CAS: 56437-94-6
Molecular weight: 318
m/z	intensity
41	270
42	90
43	230
44	60
45	999
46	30
47	100
49	40
50	30
51	70
52	40
53	60
54	30
55	10
57	10
59	30
63	10
64	10
65	20
66	20
67	80
68	40
69	20
77	150
78	60
79	40
80	10
82	60
84	40
91	30
92	20
94	100
95	20
96	20
103	10
105	100
106	20
111	20
117	190
119	180
121	90
122	20
123	40
129	20
139	20
152	20
153	30
155	30
162	30
163	20
164	20
173	20
180	30
181	90
182	30
183	130
184	30
197	50
198	20
199	430
200	80
201	20
222	30
240	20
241	250
242	50
250	20
259	20
281	50
282	20
309	7
310	3
318	2
319	1
