Mass Spectrum: Butanamide, N-formyl-2-hydroxy-3-methyl-2-(1-methylethyl)-
Formula: C9H17NO3
CAS: 56440-42-7
Molecular weight: 187
m/z	intensity
41	380
42	70
43	999
44	130
45	240
46	310
55	340
56	30
57	70
59	140
71	790
72	70
73	170
83	140
84	30
97	50
99	70
115	760
116	60
127	25
144	25
169	10
187	0
