Mass Spectrum: 4-Oxazolidinone, 2-hydroxy-3-methyl-5,5-bis(1-methylethyl)-
Formula: C10H19NO3
CAS: 56440-43-8
Molecular weight: 201
m/z	intensity
41	140
42	70
43	600
55	80
56	20
57	20
58	30
59	30
60	999
61	25
67	20
69	30
70	30
71	750
72	30
83	40
97	10
100	10
111	10
112	10
114	10
125	50
126	20
127	10
130	90
140	10
142	40
157	70
158	370
159	330
160	30
184	10
201	20
