Mass Spectrum: 4-Oxazolidinone, 2-methoxy-3-methyl-5,5-bis(1-methylethyl)-
Formula: C11H21NO3
CAS: 56440-38-1
Molecular weight: 215
m/z	intensity
41	70
42	60
43	160
45	30
55	90
56	20
57	30
58	40
59	50
60	10
71	100
72	15
73	20
74	999
75	40
83	30
97	30
125	150
126	30
129	20
140	10
142	10
155	10
157	10
172	650
173	260
174	25
184	60
215	50
