Mass Spectrum: 2-Methoxy-5-ethyl-5-phenyl-4-oxazolidone
Formula: C12H15NO3
CAS: 56440-40-5
Molecular weight: 221
m/z	intensity
57	120
77	120
78	10
91	140
103	60
105	160
107	50
115	120
116	60
117	999
118	400
119	60
120	40
130	30
132	40
134	30
135	140
136	30
143	20
145	70
146	50
149	170
150	30
160	20
161	10
164	10
188	20
189	600
190	70
192	40
221	15
