Mass Spectrum: cis-Arbusculone
Formula: C9H14O2
CAS: 56469-37-5
Molecular weight: 154
m/z	intensity
15	1
25	1
26	8
27	90
28	25
29	53
30	2
31	10
36	1
37	3
38	11
39	174
40	30
41	390
42	63
43	831
44	23
45	24
50	16
51	36
52	14
53	118
54	27
55	882
56	42
57	32
58	4
61	73
62	4
63	5
64	1
65	57
66	17
67	234
68	69
69	299
70	10
73	15
74	4
75	1
77	184
78	17
79	86
80	7
81	252
82	15
83	106
84	21
90	2
91	193
92	14
93	548
94	53
95	40
97	13
98	4
110	4
111	999
112	72
113	5
114	1
118	5
120	1
126	10
127	18
139	21
140	2
