Mass Spectrum: Acetic acid, 2-phenylhydrazono-, butyl ester
Formula: C12H16N2O2
CAS: 56476-93-8
Molecular weight: 220
m/z	intensity
33	2
34	3
36	1
37	6
38	25
39	170
40	50
41	220
42	17
43	20
44	20
45	5
46	2
47	1
48	0
49	1
50	14
51	45
52	20
53	8
54	7
55	28
56	12
57	92
58	6
59	2
60	3
61	2
62	7
63	40
64	67
65	373
66	43
67	6
68	1
69	8
70	2
71	3
72	1
73	3
74	4
75	2
76	6
77	122
78	18
79	14
80	2
81	1
82	3
83	2
84	1
85	1
86	3
87	18
88	2
89	6
91	615
92	410
93	68
94	8
95	3
96	1
97	1
98	1
99	1
100	0
101	0
102	1
103	1
104	4
105	29
106	5
107	9
108	1
109	0
110	2
111	1
112	1
113	0
114	1
115	1
116	6
118	999
119	196
120	28
121	2
122	0
123	0
124	0
125	0
127	0
128	2
129	0
130	1
131	1
132	1
133	2
134	1
135	2
136	1
138	0
140	0
141	0
143	1
144	0
145	5
146	74
147	76
148	8
149	3
150	0
151	0
152	0
154	0
155	0
156	0
157	0
159	0
161	0
162	1
163	6
164	238
165	24
166	2
167	0
168	0
171	0
172	0
173	0
174	0
175	1
176	0
177	1
178	0
179	0
180	0
182	0
183	0
185	0
187	0
188	0
189	0
190	0
191	4
192	1
194	4
195	0
202	0
203	0
205	0
206	0
207	0
211	0
217	0
220	598
221	83
222	8
223	1
