Mass Spectrum: Acetoxy-(3-dimethylaminopropyl)butylborane
Formula: C11H24BNO2
CAS: 56471-72-8
Molecular weight: 213
m/z	intensity
41	59
42	69
43	639
56	79
58	319
60	169
71	59
72	179
83	59
98	119
112	59
113	209
114	999
115	69
154	69
155	139
156	639
157	59
