Mass Spectrum: Ether, bis[2-(ethylthio)ethyl]
Formula: C8H18OS2
CAS: 5648-30-6
Molecular weight: 194
m/z	intensity
35	104
41	39
43	19
44	18
45	130
46	59
47	152
55	53
59	125
60	380
61	734
62	88
63	95
73	17
75	198
76	13
77	15
88	999
89	934
90	88
91	47
93	38
106	43
119	10
132	8
165	7
194	17
