Mass Spectrum: Butanoic acid, 2-hydroxy-
Formula: C4H8O3
CAS: 565-70-8
Molecular weight: 104
m/z	intensity
25	88
26	247
27	254
28	371
29	106
31	961
39	28
41	657
42	45
43	130
44	95
45	176
46	28
47	24
57	120
58	169
59	999
60	123
75	95
76	148
104	42
