Mass Spectrum: Pregnane-3,20-dione, 11-hydroxy-, (5.beta.,11.alpha.)-
Formula: C21H32O3
CAS: 565-93-5
Molecular weight: 332
m/z	intensity
41	273
42	7
43	999
44	150
45	18
53	68
55	307
56	18
57	39
65	21
66	10
67	163
68	36
69	128
70	21
71	157
72	10
77	71
78	18
79	200
80	47
81	336
82	42
83	55
84	65
85	147
91	150
92	31
93	205
94	84
95	218
96	34
97	84
98	31
105	155
106	57
107	197
108	168
109	215
110	97
111	86
117	23
118	18
119	105
120	65
121	155
122	736
123	215
124	76
125	39
127	7
128	7
129	7
130	5
131	68
132	47
133	105
134	97
135	115
136	47
137	50
138	31
139	7
141	7
142	7
143	28
144	18
145	89
146	42
147	118
148	28
149	105
150	21
151	10
155	10
156	13
157	42
158	18
159	97
160	26
161	78
162	31
163	57
164	10
165	18
169	18
170	10
171	36
172	18
173	47
174	31
175	57
176	18
177	36
178	21
179	21
183	7
184	10
185	26
186	21
187	50
188	18
189	28
190	18
191	28
192	28
193	47
194	7
199	21
200	7
201	31
202	7
203	105
204	18
205	18
206	18
211	31
212	7
213	18
214	7
215	18
216	7
217	7
225	5
226	18
227	18
228	5
229	73
230	18
231	5
239	5
241	5
243	2
244	147
245	34
253	26
254	7
255	2
256	26
257	26
258	5
262	5
269	7
270	5
271	65
272	21
281	26
282	5
296	15
297	15
299	65
314	702
315	205
316	10
332	252
333	52
