Mass Spectrum: Pregnane-3,20-dione, 11-hydroxy-, (11.beta.)-
Formula: C21H32O3
CAS: 565-95-7
Molecular weight: 332
m/z	intensity
41	303
42	10
43	999
44	31
45	18
53	67
55	363
56	15
57	41
65	15
67	187
68	41
69	140
70	15
71	231
72	18
77	67
78	46
79	176
80	39
81	31
82	62
83	114
84	111
91	155
92	36
93	226
94	80
95	244
96	26
97	103
98	28
99	20
105	166
106	54
107	213
108	109
109	142
110	83
111	88
117	20
118	23
119	124
120	85
121	150
122	155
123	90
124	83
125	75
131	72
132	114
133	98
134	46
135	64
136	49
137	67
138	20
143	26
144	31
145	75
146	20
147	96
148	20
149	51
157	46
158	20
159	77
160	20
161	59
163	33
165	15
169	15
170	15
171	59
172	67
173	72
174	62
175	31
176	18
177	15
185	31
186	36
187	77
188	23
189	26
190	20
191	18
197	15
199	15
200	7
201	31
202	18
203	13
211	98
212	18
213	20
215	15
225	18
226	41
227	15
229	155
230	41
231	10
239	20
241	18
242	20
243	28
244	277
245	59
253	90
254	20
255	15
256	51
257	41
270	23
271	233
272	41
281	109
282	18
296	109
297	20
299	98
300	15
314	999
315	220
316	20
332	15
333	5
