Mass Spectrum: 1-Pentyn-3-ol, 4-methyl-
Formula: C6H10O
CAS: 565-68-4
Molecular weight: 98
m/z	intensity
12	11
13	17
14	33
15	169
16	8
17	11
18	27
19	6
25	52
26	216
27	845
28	154
29	366
30	14
31	39
32	2
33	2
36	8
37	62
38	127
39	447
40	69
41	647
42	150
43	999
44	43
45	32
46	2
47	2
48	2
49	11
50	46
51	55
52	30
53	176
54	62
55	970
56	693
57	80
58	15
59	5
60	4
61	15
62	24
63	34
64	8
65	35
66	12
67	24
68	9
69	241
70	48
71	16
72	16
73	5
74	6
75	4
76	2
77	28
78	8
79	86
80	20
81	28
82	6
83	390
84	23
85	3
87	5
89	1
91	2
95	3
96	3
97	101
98	10
99	1
