Mass Spectrum: 3-Methyl-2-butenoic acid, 3-phenylpropyl ester
Formula: C14H18O2
CAS: 56500-48-2
Molecular weight: 218
m/z	intensity
25	7
26	39
27	258
28	26
29	279
30	13
31	11
35	7
36	14
37	19
38	55
39	397
40	59
41	162
42	19
43	61
44	38
45	17
48	3
49	13
50	86
51	181
52	63
53	142
54	38
55	343
56	18
57	16
59	9
60	6
61	6
62	19
63	72
64	14
65	158
66	19
67	26
68	6
69	15
71	8
73	6
74	13
75	13
76	4
77	161
78	95
79	66
81	9
82	49
83	655
84	38
85	8
86	6
87	8
89	39
90	15
91	605
92	82
93	6
99	6
100	9
101	17
102	19
103	88
104	121
105	51
106	9
114	6
115	56
116	115
117	625
118	999
119	102
120	11
