Mass Spectrum: 3-Methyl-2-butenoic acid, 3-phenyl-2-propenyl ester
Formula: C14H16O2
CAS: 56500-41-5
Molecular weight: 216
m/z	intensity
26	11
27	83
28	21
29	88
31	3
37	7
38	19
39	138
40	22
41	31
42	7
43	19
44	29
45	7
49	3
50	38
51	69
52	19
53	48
54	17
55	147
56	15
62	12
63	39
64	7
65	31
66	3
67	9
69	7
74	9
75	9
76	9
77	59
78	31
79	12
81	3
82	18
83	999
84	57
85	6
89	19
90	3
91	88
92	8
100	6
101	3
102	19
103	31
104	19
105	9
108	3
114	18
115	199
116	97
117	231
118	29
119	3
137	1
216	30
217	3
