Mass Spectrum: 1,2,4-Triazine-3,5(2H,4H)-dione, 4-amino-6-(1,1-dimethylethyl)-
Formula: C7H12N4O2
CAS: 56507-37-0
Molecular weight: 184
m/z	intensity
12	5
13	8
15	264
17	53
18	38
27	541
28	225
29	867
30	406
31	193
32	43
33	1
35	1
36	4
37	22
39	569
41	999
42	195
43	273
44	243
45	16
46	2
47	1
48	1
50	38
51	60
52	58
53	141
54	64
55	129
57	688
58	140
59	63
60	10
61	4
62	5
63	7
64	9
65	13
67	138
68	125
69	106
70	75
71	15
72	8
73	5
74	6
75	12
77	16
78	3
79	4
81	65
82	74
83	125
84	27
85	7
86	6
87	5
91	1
93	1
96	127
97	57
98	41
99	17
100	9
101	3
105	21
107	11
109	63
110	13
111	20
112	11
114	569
115	24
116	1
122	2
124	40
125	35
126	43
127	11
128	3
129	6
130	7
133	2
135	1
138	6
139	4
140	20
141	154
142	16
143	37
144	2
149	2
152	30
153	3
154	4
155	22
156	9
157	3
161	1
162	1
164	1
166	2
168	395
169	148
170	11
171	1
172	1
184	96
185	20
186	1
