Mass Spectrum: 1-Propanone, 3-hydroxy-1-phenyl-
Formula: C9H10O2
CAS: 5650-41-9
Molecular weight: 150
m/z	intensity
25	2
26	12
27	66
28	34
29	72
30	10
31	43
32	2
36	2
37	4
38	11
39	38
40	8
41	13
42	12
43	72
44	35
45	15
46	1
47	2
49	5
50	73
51	220
52	19
53	6
54	1
55	35
56	3
57	9
58	2
59	1
60	2
61	3
62	7
63	15
64	3
65	20
66	3
67	1
68	0
69	3
70	3
71	4
72	0
73	11
74	19
75	20
76	30
77	591
78	83
79	26
80	2
81	2
82	1
83	1
84	6
85	1
86	5
87	1
88	1
89	7
90	2
91	39
92	14
93	2
95	1
96	0
97	0
98	0
99	1
101	0
102	5
103	19
104	20
105	999
106	95
107	40
108	3
109	1
112	0
113	0
115	4
116	10
117	19
118	14
119	2
120	24
121	3
122	12
123	0
129	0
130	3
131	23
132	107
133	23
134	10
135	26
136	9
137	1
147	1
148	0
149	4
150	150
151	17
152	1
