Mass Spectrum: Phenylaminocarbonyl-diisopropylphosphine
Formula: C13H20NOP
CAS: 56522-11-3
Molecular weight: 237
m/z	intensity
38	101
39	295
40	51
41	496
42	58
43	760
44	30
45	119
46	108
47	147
51	131
57	130
59	68
61	129
63	129
64	170
65	177
74	121
75	631
76	567
77	379
78	58
91	337
92	276
93	308
94	30
103	79
117	999
118	656
119	429
120	179
122	58
123	49
124	220
125	39
145	40
146	19
166	228
167	40
168	19
194	29
209	128
210	29
237	547
238	99
