Mass Spectrum: t-Butyl-benzyl-phosphinyl chloride
Formula: C11H16ClP
CAS: 56522-07-7
Molecular weight: 214
m/z	intensity
39	121
41	259
50	9
51	30
57	999
58	49
63	29
65	119
76	29
77	49
90	20
91	730
92	80
121	79
122	120
123	70
157	9
158	20
159	9
214	220
215	10
216	70
