Mass Spectrum: Isopropyl-benzylphosphine
Formula: C10H15P
CAS: 56522-06-6
Molecular weight: 166
m/z	intensity
40	10
41	78
43	120
65	90
75	50
76	9
77	40
78	68
79	10
91	999
92	148
108	10
121	70
122	10
123	90
124	110
166	300
167	69
