Mass Spectrum: Trifluoroacetyl-di-t-butylphosphine
Formula: C10H18F3OP
CAS: 56522-12-4
Molecular weight: 242
m/z	intensity
39	20
41	200
42	10
43	19
55	29
56	20
57	999
58	80
89	29
145	20
242	29
