Mass Spectrum: Acetyl-benzylphosphine
Formula: C9H11OP
CAS: 56522-13-5
Molecular weight: 166
m/z	intensity
39	60
41	39
43	299
44	30
45	29
63	30
65	178
77	79
78	120
79	89
89	49
90	20
91	999
92	190
122	80
123	10
124	329
125	59
166	59
167	20
