Mass Spectrum: 3-Methoxy-3-methylbutanol
Formula: C6H14O2
CAS: 56539-66-3
Molecular weight: 118
m/z	intensity
14	2
15	26
17	1
18	4
26	4
27	47
28	15
29	61
30	6
31	84
32	6
33	91
37	1
38	3
39	50
40	12
41	199
42	24
43	83
44	5
45	53
46	1
50	2
51	3
52	1
53	46
54	3
55	48
56	51
57	30
58	3
59	15
61	2
63	1
65	1
67	11
68	12
69	85
70	9
71	38
72	9
73	999
74	43
75	3
85	66
86	7
87	5
103	103
104	6
