Mass Spectrum: Pyrrolo[1,2-a]pyrazine-1,4-dione, hexahydro-3-(2-methylpropyl)-
Formula: C11H18N2O2
CAS: 5654-86-4
Molecular weight: 210
m/z	intensity
40	72
41	326
42	136
43	268
44	162
45	13
47	1
49	0
50	4
51	10
52	8
53	29
54	28
55	149
56	51
57	49
58	5
59	1
60	4
61	1
62	1
63	7
64	4
65	6
66	7
67	23
68	111
69	147
70	999
71	61
72	10
73	4
74	7
75	1
76	1
77	6
78	5
79	8
80	6
81	16
82	17
83	24
84	28
85	14
86	282
87	20
88	1
91	11
92	4
93	3
94	8
95	10
96	59
97	34
98	39
99	13
100	0
103	0
105	3
107	1
109	6
110	6
111	17
112	23
113	8
114	0
115	7
119	4
121	2
122	2
123	8
124	91
125	104
126	34
127	5
128	1
129	3
131	2
137	15
138	3
139	60
140	13
141	3
149	7
150	2
151	2
152	11
153	37
154	968
155	82
156	6
157	16
165	2
167	43
169	8
181	3
195	18
196	1
210	2
