Mass Spectrum: 7-Heptadecene, 1-chloro-
Formula: C17H33Cl
CAS: 56554-78-0
Molecular weight: 272
m/z	intensity
26	9
27	173
28	146
29	346
30	8
31	23
32	31
38	3
39	156
40	26
41	876
42	166
43	626
44	28
45	8
49	8
50	3
51	13
52	9
53	113
54	319
55	999
56	470
57	553
58	26
59	13
60	4
61	2
62	3
63	23
64	2
65	30
66	24
67	326
68	173
69	746
70	433
71	259
72	14
73	3
74	8
75	15
76	4
77	29
78	6
79	46
80	19
81	220
82	193
83	633
84	263
85	133
86	8
87	1
88	2
89	14
90	12
91	54
92	6
93	18
94	6
95	129
96	103
97	453
98	153
99	28
100	4
102	2
103	17
104	103
105	37
106	34
107	14
108	3
109	72
110	35
111	200
112	79
113	14
114	2
115	3
116	4
117	30
118	43
119	28
120	15
121	8
122	2
123	46
124	20
125	69
126	46
127	8
128	2
129	4
130	6
131	30
132	28
133	20
134	9
135	6
136	2
137	19
138	13
139	25
140	26
141	8
142	1
143	2
144	9
145	24
146	22
147	16
148	6
149	5
150	1
151	8
152	5
153	7
154	14
155	6
156	2
157	2
158	6
159	16
160	21
161	10
162	6
163	2
165	3
166	5
167	6
168	8
169	2
170	1
171	2
172	4
173	12
174	15
175	6
176	5
177	2
178	1
179	1
180	2
181	3
182	4
183	2
184	1
185	1
186	3
187	7
188	12
189	5
190	3
191	2
192	1
193	1
194	2
195	2
196	2
197	1
198	1
200	3
201	4
202	7
203	3
204	2
205	15
206	2
207	2
208	2
209	1
210	2
211	1
213	2
214	2
215	2
216	6
217	2
218	2
219	1
220	4
221	1
224	2
228	1
229	2
230	2
231	1
232	1
233	1
236	2
238	4
244	8
245	2
256	4
258	2
260	1
272	84
273	14
274	32
275	6
276	1
