Mass Spectrum: 10-Octadecenal
Formula: C18H34O
CAS: 56554-92-8
Molecular weight: 266
m/z	intensity
15	27
16	2
17	17
18	65
25	2
26	13
27	150
28	70
29	380
30	71
31	27
32	2
36	4
37	6
38	8
39	95
40	37
41	690
42	300
43	970
44	600
45	210
46	15
47	4
48	3
49	4
50	6
51	8
52	6
53	44
54	130
55	660
56	450
57	999
58	400
59	100
60	11
61	6
62	6
63	6
64	4
65	11
66	96
67	360
68	610
69	420
70	370
71	460
72	280
73	180
74	19
75	10
76	4
77	13
78	8
79	29
80	38
81	300
82	840
83	590
84	360
85	300
86	160
87	53
88	6
89	4
90	2
91	20
92	6
93	18
94	28
95	280
96	480
97	420
98	280
99	180
100	59
101	16
102	4
103	3
104	4
105	10
106	4
107	8
108	14
109	120
110	160
111	160
112	110
113	83
114	31
115	14
116	3
117	4
118	2
119	6
120	3
121	6
122	10
123	62
124	81
125	85
126	60
127	44
128	23
129	11
130	3
131	6
132	3
133	9
134	4
135	16
136	6
137	22
138	52
139	56
140	34
141	31
142	22
143	8
144	2
145	26
146	4
147	81
148	15
149	14
150	4
151	8
152	17
153	27
154	24
155	18
156	14
157	6
158	6
159	3
160	2
161	3
162	2
163	3
164	2
165	4
166	10
167	18
168	18
169	14
170	13
171	5
172	2
173	2
174	2
175	2
176	2
177	4
178	2
179	4
180	7
181	15
182	17
183	11
184	15
185	5
186	2
187	1
188	1
189	2
190	1
191	7
192	3
193	7
194	10
195	20
196	23
197	12
198	9
199	4
200	2
201	1
202	1
203	2
204	1
205	6
206	4
207	59
208	17
209	17
210	14
211	5
212	2
213	3
214	3
215	2
216	1
217	2
218	2
219	3
221	75
222	21
223	32
224	47
225	23
226	48
227	12
228	3
229	1
230	1
231	2
232	1
233	2
234	1
235	3
236	3
237	3
238	2
239	2
240	2
241	4
242	8
243	2
244	1
245	1
246	1
247	2
248	1
249	3
250	5
251	90
252	21
253	5
