Mass Spectrum: 14-Octadecenoic acid, methyl ester
Formula: C19H36O2
CAS: 56554-48-4
Molecular weight: 296
m/z	intensity
26	5
27	90
28	80
29	210
30	6
31	13
32	13
33	3
35	1
36	3
37	2
38	2
39	90
40	19
41	730
42	140
43	380
44	23
45	25
46	1
47	1
48	1
49	1
50	2
51	5
52	4
53	58
54	150
55	999
56	200
57	190
58	14
59	150
60	8
61	3
62	1
63	2
64	1
65	13
66	13
67	210
68	140
69	560
70	140
71	90
72	11
73	39
74	540
75	90
76	6
77	13
78	6
79	36
80	23
81	180
82	150
83	390
84	270
85	60
86	6
87	360
88	35
89	4
90	1
91	10
92	4
93	22
94	26
95	140
96	240
97	320
98	220
99	31
100	7
101	50
102	6
103	2
104	1
105	6
106	4
107	21
108	20
109	90
110	130
111	140
112	50
113	20
114	28
115	49
116	10
117	2
118	2
119	14
120	6
121	26
122	14
123	82
124	72
125	87
126	18
127	20
128	33
129	40
130	11
131	2
132	1
133	15
134	12
135	26
136	10
137	52
138	59
139	50
140	11
141	37
142	11
143	41
144	6
145	2
146	1
147	11
148	10
149	19
150	9
151	34
152	47
153	31
154	7
155	11
156	4
157	15
158	4
159	2
160	1
161	9
162	6
163	18
164	9
165	23
166	36
167	21
168	5
169	15
170	3
171	12
172	3
173	2
174	1
175	8
176	4
177	8
178	4
179	15
180	66
181	24
182	5
183	9
184	2
185	9
186	3
187	2
188	1
189	6
190	2
191	4
192	2
193	11
194	16
195	9
196	2
197	3
198	1
199	10
200	5
201	2
202	1
203	3
204	2
205	2
206	2
207	12
208	11
209	6
210	2
211	2
212	1
213	12
214	5
215	1
216	1
217	3
218	2
219	1
220	25
221	20
222	90
223	21
224	3
225	2
226	1
227	3
228	2
229	1
230	1
231	1
232	1
233	1
235	16
236	14
237	3
238	1
239	2
240	1
241	2
242	1
245	1
246	10
247	3
248	1
249	2
250	1
251	1
252	1
253	6
254	2
255	8
256	2
257	1
263	3
264	220
265	140
266	6
267	2
268	1
269	1
278	2
279	1
280	1
281	1
282	1
283	1
294	1
295	1
296	34
297	8
298	7
299	2
300	1
