Mass Spectrum: 8-Octadecenal
Formula: C18H34O
CAS: 56554-94-0
Molecular weight: 266
m/z	intensity
14	17
15	75
16	7
17	17
18	57
19	3
20	2
26	10
27	130
28	87
29	470
30	80
31	390
32	290
33	6
37	6
38	7
39	82
40	32
41	630
42	280
43	970
44	490
45	180
46	13
47	4
48	4
50	5
51	8
52	6
53	38
54	110
55	560
56	460
57	999
58	330
59	77
60	10
61	6
62	5
63	5
64	4
65	9
66	92
67	310
68	580
69	420
70	350
71	460
72	250
73	120
74	16
75	10
76	5
77	11
78	7
79	23
80	34
81	250
82	710
83	620
84	410
85	290
86	140
87	41
88	6
89	5
90	3
91	16
92	5
93	14
94	25
95	230
96	420
97	450
98	300
99	160
100	48
101	13
102	3
103	3
104	3
105	8
106	4
107	6
108	11
109	75
110	170
111	180
112	120
113	69
114	26
115	10
116	3
117	3
118	2
119	5
120	3
121	5
122	6
123	32
124	77
125	110
126	70
127	35
128	18
129	8
130	3
131	5
132	2
133	7
134	3
135	13
136	5
137	18
138	48
139	63
140	40
141	28
142	19
143	6
144	2
145	10
146	3
147	51
148	10
149	11
150	4
151	8
152	19
153	28
154	23
155	15
156	11
157	5
158	3
159	2
160	1
161	2
162	1
163	3
164	1
165	5
166	10
167	17
168	19
169	15
170	9
171	5
172	3
173	3
174	2
175	3
176	3
177	65
178	3
179	5
180	8
181	15
182	16
183	14
184	10
185	4
186	2
187	2
188	1
189	3
190	2
191	6
192	3
193	7
194	13
195	21
196	18
197	11
198	8
199	4
200	3
201	2
202	1
203	2
204	2
205	4
206	3
207	40
208	14
209	16
210	11
211	4
212	3
213	4
214	3
215	2
217	2
218	1
219	4
221	49
222	19
223	33
224	40
225	23
226	42
227	10
228	2
229	1
231	2
232	1
233	2
234	1
235	3
236	3
237	3
238	2
239	2
240	2
241	4
242	7
243	3
249	3
250	9
251	43
252	77
253	17
254	4
255	3
256	2
257	2
258	2
259	2
260	1
261	2
262	1
265	4
266	2
267	8
268	4
269	6
