Mass Spectrum: 9,17-Octadecadienal, (Z)-
Formula: C18H32O
CAS: 56554-35-9
Molecular weight: 264
m/z	intensity
39	143
40	23
41	652
42	59
43	217
44	63
45	7
51	15
52	13
53	122
54	456
55	578
56	59
57	119
58	8
65	59
66	70
67	999
68	417
69	291
70	63
71	42
77	105
78	35
79	294
80	182
81	715
82	368
83	150
84	66
85	24
91	98
92	29
93	147
94	87
95	456
96	284
97	119
98	178
99	20
105	31
106	17
107	73
108	63
109	196
110	168
111	63
112	45
113	7
119	31
120	16
121	59
122	27
123	84
124	77
125	19
126	6
133	35
134	21
135	42
136	14
137	56
138	38
139	7
147	19
148	18
149	17
150	7
151	32
152	21
153	4
161	12
162	7
163	7
164	4
165	15
166	11
175	8
179	9
180	7
193	7
194	5
207	8
221	7
235	5
264	77
265	15
