Mass Spectrum: 14,17-Octadecadienoic acid, methyl ester
Formula: C19H34O2
CAS: 56554-60-0
Molecular weight: 294
m/z	intensity
27	90
28	30
29	180
31	10
39	110
40	30
41	670
42	100
43	330
44	10
45	30
51	10
52	10
53	150
54	390
55	840
56	100
57	120
58	10
59	190
60	10
65	40
66	60
67	650
68	999
69	500
70	60
71	50
72	10
73	40
74	390
75	50
77	60
78	20
79	210
80	130
81	820
82	680
83	340
84	90
85	40
87	230
88	20
91	30
92	10
93	60
94	90
95	500
96	480
97	240
98	70
99	20
101	30
105	10
107	40
108	40
109	250
110	190
111	90
112	20
113	10
114	10
115	30
120	10
121	50
122	30
123	130
124	90
125	50
126	10
127	10
128	10
129	30
130	10
133	10
134	10
135	50
136	40
137	70
138	60
139	40
140	10
141	20
143	30
147	10
149	40
150	50
151	40
152	30
153	20
154	10
155	10
157	20
161	10
163	30
164	40
165	30
166	20
167	20
168	10
171	10
177	20
178	30
179	20
180	20
181	20
191	10
192	20
193	10
195	10
199	10
203	10
205	10
206	10
209	10
210	10
213	10
220	30
221	10
222	20
223	20
224	10
233	10
234	20
235	10
237	10
252	10
262	80
263	110
264	60
265	30
294	170
295	30
296	10
