Mass Spectrum: 14-Octadecenal
Formula: C18H34O
CAS: 56554-89-3
Molecular weight: 266
m/z	intensity
14	4
15	10
16	4
17	7
18	27
26	9
27	98
28	56
29	250
30	73
31	22
32	3
38	6
39	77
40	29
41	580
42	260
43	710
44	570
45	210
46	12
47	3
48	4
49	4
50	4
51	6
52	5
53	41
54	150
55	660
56	340
57	880
58	380
59	110
60	11
61	6
62	4
63	5
64	3
65	9
66	100
67	400
68	600
69	460
70	290
71	450
72	270
73	200
74	19
75	10
76	4
77	11
78	8
79	29
80	41
81	370
82	999
83	560
84	260
85	260
86	160
87	56
88	7
89	3
91	13
92	5
93	17
94	31
95	370
96	620
97	370
98	200
99	150
100	56
101	17
102	5
103	3
104	3
105	8
106	3
107	9
108	15
109	180
110	190
111	140
112	100
113	76
114	35
115	14
116	6
117	4
118	3
119	5
120	3
121	6
122	15
123	100
124	110
125	64
126	50
127	39
128	23
129	10
130	3
131	6
132	2
133	9
134	3
135	13
136	9
137	58
138	58
139	34
140	27
141	25
142	19
143	6
144	2
145	12
146	3
147	110
148	16
149	15
150	4
151	16
152	24
153	22
154	20
155	15
156	15
157	6
158	3
159	3
160	2
161	3
162	2
163	3
164	2
165	6
166	12
167	17
168	20
169	12
170	16
171	6
172	2
173	2
175	3
176	3
177	5
178	3
179	5
180	9
181	15
182	18
183	11
184	17
185	5
186	1
187	1
189	2
190	1
191	7
192	3
193	7
194	10
195	21
196	27
197	13
198	11
199	5
200	2
201	2
202	1
203	2
204	1
205	7
206	5
207	67
208	18
209	19
210	15
211	5
212	3
213	3
214	3
215	2
217	2
218	3
219	4
221	97
222	28
223	31
224	57
225	26
226	53
227	12
228	3
229	1
230	1
231	2
232	1
233	1
234	1
235	3
236	3
237	4
238	2
239	2
240	2
241	4
242	7
243	2
244	1
245	1
247	1
248	1
249	3
250	7
251	33
252	96
253	20
254	5
255	3
256	2
257	2
258	1
259	2
260	1
261	1
263	2
264	1
265	6
266	2
267	13
