Mass Spectrum: Pentanoic acid, 2-methyl-, 1,2,3-propanetriyl ester
Formula: C21H38O6
CAS: 56554-55-3
Molecular weight: 386
m/z	intensity
26	9
27	61
28	180
29	80
30	8
31	7
32	47
36	3
37	2
38	4
39	45
40	10
41	140
42	40
43	450
44	49
45	29
46	2
47	2
50	2
51	14
52	2
53	11
54	6
55	100
56	80
57	56
58	7
59	8
60	7
61	2
62	1
63	2
64	6
65	3
66	4
67	11
68	8
69	70
70	35
71	960
72	60
73	53
74	330
75	14
76	3
77	3
78	2
79	4
80	3
81	9
82	7
83	19
84	6
85	19
86	3
87	53
88	11
89	2
91	4
92	1
93	3
94	2
95	7
96	8
97	16
98	30
99	999
100	70
101	17
102	2
103	2
104	1
105	3
106	1
107	2
108	3
109	5
110	3
111	5
112	3
113	3
114	7
115	5
116	2
117	8
118	2
119	2
120	1
121	2
122	1
123	3
124	2
125	3
126	2
127	2
128	2
129	2
130	9
131	4
132	1
133	2
134	1
135	6
136	1
137	3
138	1
139	2
140	2
141	6
142	4
143	3
144	1
145	2
146	1
147	1
148	1
149	2
150	1
151	4
152	5
153	2
154	5
155	3
156	2
157	7
158	2
159	3
160	1
161	1
162	1
163	1
164	1
165	1
166	1
167	1
168	1
169	1
170	1
171	20
172	7
173	44
174	6
175	1
176	1
177	1
178	1
179	1
180	1
181	1
182	1
183	1
184	1
185	5
186	67
187	8
188	1
189	1
191	1
192	1
193	1
194	1
195	1
196	1
197	1
198	5
199	19
200	3
201	2
205	1
207	3
213	2
214	2
215	2
216	1
227	2
228	51
229	8
230	2
241	14
242	2
243	1
255	3
256	1
257	35
258	6
259	1
268	1
269	2
270	7
271	110
272	19
273	3
281	1
283	1
299	1
313	4
314	1
315	3
316	1
344	1
345	1
355	3
356	1
357	1
