Mass Spectrum: Hexadecane, 1,1-bis(dodecyloxy)-
Formula: C40H82O2
CAS: 56554-64-4
Molecular weight: 594
m/z	intensity
26	12
27	189
28	97
29	384
30	12
31	133
32	11
36	9
37	5
38	6
39	123
40	26
41	717
42	235
43	999
44	82
45	35
46	4
47	3
50	7
51	11
52	7
53	49
54	97
55	743
56	487
57	953
58	51
59	10
60	14
61	24
62	3
63	6
64	3
65	11
66	25
67	148
68	271
69	589
70	435
71	456
72	32
73	25
74	7
75	4
76	3
77	16
78	8
79	22
80	17
81	112
82	400
83	507
84	282
85	276
86	22
87	10
88	11
89	5
90	3
91	17
92	8
93	20
94	12
95	97
96	189
97	333
98	174
99	64
100	8
101	9
102	5
103	4
104	4
105	15
106	5
107	7
108	6
109	50
110	56
111	158
112	97
113	43
114	6
115	8
116	7
117	7
118	3
119	12
120	7
121	7
122	7
123	26
124	27
125	60
126	40
127	24
128	7
129	7
130	4
131	4
132	3
133	4
134	3
135	6
136	5
137	17
138	22
139	21
140	102
141	24
142	4
143	4
144	3
145	4
146	3
147	3
148	3
149	4
150	3
151	7
152	8
153	7
154	10
155	11
156	5
157	5
158	3
159	4
160	2
161	2
162	2
163	3
164	2
165	6
166	21
167	9
168	49
169	31
170	6
171	3
172	2
173	4
174	2
175	2
176	2
177	2
178	2
179	5
180	5
181	3
182	4
183	9
184	6
185	5
186	3
187	3
188	2
189	2
190	2
191	2
192	2
193	3
194	12
195	5
196	7
197	19
198	6
199	3
200	4
201	12
202	4
203	2
204	2
205	2
206	2
207	3
208	3
209	3
210	4
211	4
212	7
213	5
214	2
215	2
216	2
217	2
218	2
219	2
220	2
221	3
222	28
223	11
224	5
225	14
226	12
227	4
228	3
229	6
230	3
231	2
232	2
233	2
234	2
235	2
236	2
237	2
238	3
239	7
240	7
241	4
242	2
243	2
250	3
251	3
252	3
253	5
254	4
255	3
256	7
257	22
258	5
259	2
260	2
261	2
262	2
267	3
268	2
269	2
270	2
281	4
282	2
283	2
284	3
285	2
286	2
287	2
408	15
409	5
410	2
440	5
441	3
