Mass Spectrum: 4-Octadecenoic acid, methyl ester
Formula: C19H36O2
CAS: 56555-10-3
Molecular weight: 296
m/z	intensity
25	3
26	9
27	140
28	150
29	380
30	11
31	13
32	21
33	4
34	1
35	2
36	8
37	3
38	5
39	130
40	32
41	840
42	150
43	870
44	58
45	28
46	2
47	2
48	2
49	1
50	4
51	9
52	9
53	110
54	280
55	770
56	180
57	420
58	24
59	240
60	11
61	6
62	1
63	3
64	3
65	29
66	33
67	510
68	400
69	440
70	130
71	190
72	33
73	43
74	999
75	150
76	10
77	28
78	12
79	91
80	89
81	360
82	280
83	390
84	420
85	330
86	23
87	280
88	34
89	4
90	1
91	21
92	8
93	37
94	47
95	240
96	540
97	380
98	260
99	55
100	15
101	61
102	9
103	3
104	3
105	10
106	5
107	24
108	27
109	130
110	200
111	160
112	52
113	53
114	86
115	80
116	11
117	3
118	3
119	24
120	8
121	27
122	15
123	120
124	84
125	70
126	22
127	65
128	74
129	46
130	19
131	4
132	2
133	18
134	18
135	23
136	10
137	66
138	58
139	37
140	11
141	62
142	17
143	33
144	6
145	3
147	12
148	12
149	13
150	8
151	41
152	49
153	21
154	7
155	18
156	6
157	13
158	3
159	2
160	1
161	8
162	5
163	7
164	8
165	26
166	42
167	15
168	6
169	25
170	5
171	10
172	3
173	2
174	1
175	6
176	3
177	5
178	5
179	16
180	120
181	24
182	5
183	14
184	3
185	8
186	4
187	2
189	4
190	2
191	4
192	3
193	12
194	25
195	6
196	3
197	5
198	2
199	11
200	6
201	2
203	2
204	2
205	3
206	3
207	10
208	10
209	5
210	4
211	5
212	2
213	9
214	6
215	2
216	1
217	3
218	2
219	2
220	40
221	21
222	200
223	41
224	5
225	3
226	2
227	4
228	4
229	3
231	3
232	2
233	2
234	2
235	13
236	20
237	5
238	2
239	3
240	2
241	3
242	4
243	2
245	3
246	14
247	24
248	6
249	3
250	3
251	1
252	1
253	8
254	3
255	3
256	2
257	1
263	5
264	230
265	70
266	11
267	6
268	3
269	2
270	1
278	4
279	2
281	1
282	1
294	2
296	26
297	7
298	4
299	2
