Mass Spectrum: 1,9,12-Octadecatriene, 1-methoxy-
Formula: C19H34O
CAS: 56554-59-7
Molecular weight: 278
m/z	intensity
27	81
28	36
29	150
31	10
32	8
33	5
39	75
40	14
41	560
42	40
43	120
44	6
45	80
51	8
52	7
53	80
54	110
55	260
56	42
57	49
58	32
59	15
65	28
66	47
67	390
68	100
69	110
70	18
71	999
72	59
73	6
77	56
78	50
79	300
80	280
81	250
82	81
83	49
84	100
85	46
86	8
91	150
92	37
93	190
94	110
95	180
96	70
97	180
98	29
99	6
100	2
104	6
105	48
106	19
107	82
108	61
109	72
110	52
111	50
112	20
113	5
117	5
119	38
120	17
121	90
122	90
123	41
124	18
125	54
126	13
128	6
133	33
134	16
135	100
136	47
137	27
138	12
139	100
147	26
148	15
149	36
150	34
151	25
152	6
153	5
161	26
162	10
163	27
164	15
165	10
167	6
168	5
175	21
176	6
177	15
178	6
179	5
189	10
191	7
202	5
206	5
221	5
235	5
246	12
264	8
278	510
279	110
280	12
