Mass Spectrum: Octadecanoic acid, 3-[(1-oxohexadecyl)oxy]-2-[(1-oxotetradecyl)oxy]propyl ester
Formula: C51H98O6
CAS: 56554-26-8
Molecular weight: 806
m/z	intensity
26	7
27	81
28	26
29	194
30	6
31	6
32	2
38	4
39	56
40	17
41	451
42	152
43	993
44	38
45	12
50	2
51	4
52	3
53	23
54	42
55	437
56	166
57	999
58	56
59	13
60	43
61	11
62	2
63	2
65	4
66	6
67	104
68	51
69	319
70	97
71	562
72	37
73	48
74	22
75	6
76	2
77	4
78	3
79	25
80	15
81	145
82	50
83	277
84	250
85	388
86	31
87	30
88	5
89	4
91	6
92	3
93	27
94	16
95	222
96	52
97	236
98	333
99	104
100	22
101	15
102	13
103	4
104	2
105	4
106	3
107	23
108	11
109	215
110	32
111	138
112	125
113	58
114	11
115	25
116	36
117	25
118	4
119	5
120	4
121	39
122	10
123	78
124	20
125	49
126	30
127	31
128	8
129	64
130	9
131	4
133	4
134	6
135	33
136	9
137	40
138	15
139	22
140	17
141	18
142	7
143	13
144	4
145	3
147	5
148	3
149	18
150	5
151	18
152	9
153	14
154	18
155	15
156	5
157	9
158	52
159	10
160	2
161	2
162	2
163	10
164	4
165	10
166	11
167	13
168	12
169	13
170	6
171	84
172	14
173	4
175	3
176	4
177	6
178	4
179	6
180	5
181	10
182	9
183	18
184	6
185	36
186	9
187	4
189	2
190	2
191	9
192	4
193	9
194	6
195	9
196	8
197	10
198	5
199	14
200	6
201	3
205	4
206	3
207	4
208	7
209	15
210	28
211	493
212	79
213	28
214	8
215	4
216	2
217	3
218	2
219	6
220	4
221	6
222	5
223	6
224	7
225	6
226	6
227	46
228	11
229	18
230	4
231	3
232	3
233	3
234	3
235	4
236	7
237	12
238	25
239	312
240	54
241	25
242	9
243	4
245	3
246	3
247	4
248	4
249	5
250	4
251	4
252	9
253	11
254	5
255	18
256	9
257	13
258	4
259	2
260	2
261	2
262	4
263	3
264	6
265	11
266	27
267	256
268	51
269	25
270	9
271	6
272	3
273	3
274	2
275	2
276	2
277	2
278	2
279	3
280	11
281	11
282	6
283	41
284	20
285	180
286	33
287	6
288	2
290	2
293	4
294	4
295	7
296	5
297	17
298	7
299	6
300	2
301	2
302	2
303	6
304	3
305	3
308	10
309	9
310	6
311	36
312	17
313	145
314	31
315	5
316	2
321	2
322	4
323	4
324	4
325	10
326	46
327	33
328	8
329	2
331	6
332	3
335	2
336	4
337	6
338	6
339	90
340	30
341	125
342	29
343	6
344	2
345	3
346	2
349	2
350	2
351	4
352	4
353	13
354	44
355	29
356	7
357	3
359	5
360	2
365	4
366	4
367	67
368	20
369	5
370	2
371	2
372	2
373	2
379	4
380	4
381	20
382	46
383	28
384	7
385	4
386	3
393	4
394	4
395	82
396	29
397	7
398	4
399	2
400	2
401	2
407	4
408	4
409	23
410	11
411	4
412	2
413	2
414	4
415	2
420	2
421	4
422	3
423	36
424	17
425	5
426	2
427	2
428	2
435	3
436	2
437	25
438	12
439	5
442	4
443	2
448	4
449	4
450	2
451	37
452	18
453	6
454	2
455	2
465	20
466	11
467	4
468	2
476	4
477	4
478	2
479	28
480	13
481	4
482	2
483	2
493	18
494	12
495	5
496	2
504	2
505	2
506	2
507	22
508	11
509	15
510	6
511	2
512	2
520	4
521	27
522	78
523	222
524	77
525	16
526	4
527	2
535	15
536	9
537	13
538	6
539	4
540	4
541	4
549	22
550	77
551	194
552	68
553	15
554	4
564	8
565	8
566	4
567	4
568	2
569	2
570	2
576	4
577	16
578	60
579	159
580	58
581	13
582	6
583	3
592	8
593	4
595	4
596	3
597	2
610	5
620	11
621	6
623	4
624	4
625	3
638	6
639	4
648	4
649	3
662	3
663	2
676	3
690	4
691	3
704	4
705	3
718	4
733	4
788	4
789	4
806	3
807	2
