Mass Spectrum: Octadecanoic acid, 2-phenyl-1,3-dioxan-5-yl ester
Formula: C28H46O4
CAS: 56554-39-3
Molecular weight: 446
m/z	intensity
26	9
27	76
28	33
29	230
30	7
31	19
38	5
39	56
40	15
41	420
42	100
43	720
44	33
45	11
50	13
51	37
52	12
53	23
54	55
55	470
56	120
57	730
58	74
59	14
60	17
61	60
63	7
65	9
66	5
67	80
68	36
69	260
70	57
71	330
72	23
73	25
74	7
75	6
76	7
77	130
78	61
79	140
80	17
81	86
82	38
83	180
84	54
85	200
86	16
87	8
89	10
90	17
91	180
92	25
93	16
94	7
95	100
96	23
97	130
98	61
99	51
100	260
101	47
102	6
103	6
104	8
105	999
106	160
107	170
108	20
109	59
110	13
111	58
112	20
113	360
114	32
115	11
116	280
117	41
118	32
119	18
120	12
121	18
122	8
123	34
124	7
125	24
126	6
127	36
128	6
129	230
130	21
131	7
133	15
134	9
135	14
137	17
138	6
139	13
141	12
142	6
143	18
144	16
145	6
149	58
150	7
151	8
153	9
155	39
156	9
157	37
158	6
162	250
163	140
164	18
165	7
167	7
169	110
170	14
171	29
172	5
179	37
180	7
181	13
183	11
185	54
186	8
197	9
199	11
211	16
213	11
222	9
226	26
227	6
228	13
233	27
234	6
239	16
240	5
241	16
247	7
249	5
253	9
255	12
263	9
264	8
265	11
266	5
267	330
268	67
269	16
275	5
281	61
282	15
283	28
284	9
289	6
295	17
296	5
297	30
298	7
305	5
311	14
324	250
325	65
326	11
338	6
339	42
340	67
341	17
368	5
369	89
370	22
371	5
373	5
445	240
446	170
447	42
448	8
