Mass Spectrum: 12-Octadecenal
Formula: C18H34O
CAS: 56554-91-7
Molecular weight: 266
m/z	intensity
26	9
27	110
28	50
29	290
30	58
31	21
32	3
38	7
39	77
40	30
41	610
42	270
43	820
44	600
45	200
46	11
47	4
50	5
51	7
52	6
53	40
54	130
55	640
56	390
57	940
58	420
59	120
60	10
61	6
62	6
63	6
64	5
65	10
66	110
67	410
68	640
69	440
70	330
71	480
72	300
73	140
74	15
75	10
76	5
77	12
78	8
79	28
80	41
81	360
82	999
83	580
84	310
85	300
86	170
87	56
88	7
89	4
90	3
91	13
92	6
93	16
94	32
95	350
96	600
97	400
98	250
99	170
100	57
101	18
102	4
103	4
104	4
105	7
106	5
107	8
108	15
109	160
110	200
111	150
112	110
113	87
114	33
115	13
116	3
117	4
118	3
119	3
120	3
121	5
122	12
123	84
124	100
125	71
126	54
127	46
128	23
129	9
130	4
131	5
132	3
133	6
134	3
135	13
136	9
137	51
138	51
139	45
140	28
141	27
142	21
143	8
144	3
145	8
146	3
147	56
148	11
149	13
150	4
151	15
152	21
153	25
154	20
155	16
156	15
157	7
158	3
159	2
160	2
161	3
162	3
163	4
164	3
165	5
166	11
167	17
168	19
169	18
170	17
171	7
172	2
173	3
174	3
175	4
176	3
177	5
178	3
179	5
180	8
181	17
182	21
183	13
184	17
185	7
186	3
187	2
189	2
190	1
191	6
192	4
193	6
194	9
195	24
196	27
197	13
198	11
199	5
200	3
201	3
203	2
205	4
206	4
207	43
208	14
209	18
210	17
211	6
212	3
213	4
214	4
215	3
219	4
221	52
222	17
223	30
224	54
225	25
226	52
227	12
228	3
235	3
236	3
237	4
238	3
239	3
240	3
241	5
242	8
243	3
244	2
249	4
250	7
251	33
252	93
253	22
254	5
