Mass Spectrum: 15-Octadecenal
Formula: C18H34O
CAS: 56554-93-9
Molecular weight: 266
m/z	intensity
15	11
17	7
18	29
19	1
26	8
27	110
28	95
29	320
30	90
31	32
32	3
38	5
39	72
40	31
41	600
42	270
43	790
44	620
45	230
46	11
47	3
48	3
49	2
50	4
51	5
52	4
53	37
54	150
55	670
56	230
57	910
58	380
59	120
60	9
61	4
63	4
64	2
65	8
66	110
67	410
68	610
69	450
70	270
71	430
72	260
73	100
74	11
75	5
76	3
77	8
78	5
79	24
80	37
81	350
82	999
83	530
84	210
85	230
86	140
87	52
88	7
89	2
90	1
91	6
92	3
93	12
94	28
95	350
96	600
97	340
98	160
99	120
100	47
101	13
102	6
103	2
104	2
105	3
106	2
107	5
108	12
109	170
110	170
111	110
112	81
113	58
114	29
115	9
116	4
117	2
118	1
119	2
120	1
121	4
122	11
123	90
124	90
125	49
126	42
127	33
128	18
129	6
130	3
131	2
132	1
133	3
134	1
135	6
136	7
137	53
138	51
139	26
140	22
141	18
142	15
143	5
144	2
145	4
146	1
147	20
148	4
149	5
150	3
151	13
152	20
153	16
154	17
155	12
156	11
157	4
158	2
159	1
161	1
163	2
164	2
165	5
166	10
167	12
168	14
169	9
170	13
171	4
172	2
173	2
176	1
177	2
178	2
179	3
180	7
181	11
182	14
183	9
184	13
185	4
186	1
187	1
189	1
191	2
192	1
193	3
194	7
195	16
196	19
197	8
198	9
199	3
200	2
201	1
203	1
205	2
206	2
207	15
208	7
209	11
210	11
211	3
212	2
213	2
214	2
215	1
219	2
221	20
222	9
223	18
224	42
225	19
226	38
227	9
228	2
235	2
236	2
237	3
238	2
239	1
240	2
241	3
242	5
243	2
249	2
250	24
251	68
252	15
253	3
264	1
265	2
267	4
268	2
