Mass Spectrum: 13-Octadecenal
Formula: C18H34O
CAS: 56554-90-6
Molecular weight: 266
m/z	intensity
14	5
15	9
16	4
17	5
18	18
26	8
27	100
28	200
29	290
30	61
31	21
32	35
33	3
38	5
39	73
40	28
41	580
42	260
43	740
44	590
45	210
46	11
47	3
49	3
50	5
51	6
52	4
53	37
54	140
55	660
56	360
57	900
58	400
59	110
60	10
61	5
62	4
63	4
64	3
65	8
66	100
67	390
68	610
69	450
70	300
71	460
72	280
73	150
74	15
75	8
76	3
77	9
78	6
79	26
80	38
81	350
82	999
83	550
84	280
85	270
86	160
87	53
88	5
89	3
90	2
91	11
92	4
93	14
94	31
95	340
96	600
97	360
98	210
99	150
100	48
101	15
102	3
103	2
104	2
105	5
106	3
107	7
108	13
109	170
110	180
111	130
112	100
113	75
114	31
115	11
116	4
117	3
118	2
119	3
120	2
121	5
122	12
123	84
124	96
125	62
126	47
127	38
128	22
129	8
130	4
131	4
132	2
133	6
134	2
135	8
136	8
137	51
138	54
139	35
140	25
141	21
142	16
143	6
144	2
145	6
146	2
147	58
148	10
149	9
150	4
151	14
152	20
153	22
154	18
155	14
156	13
157	5
158	2
159	2
160	1
161	2
162	1
163	2
164	1
165	5
166	10
167	14
168	16
169	11
170	14
171	5
172	2
173	2
174	2
175	2
176	2
177	3
178	2
179	3
180	8
181	12
182	16
183	10
184	14
185	5
189	2
191	4
192	3
193	5
194	8
195	19
196	23
197	11
198	9
199	4
200	2
205	4
206	3
207	37
208	12
209	14
210	13
211	4
212	2
213	3
214	3
219	3
221	52
222	17
223	26
224	47
225	24
226	43
227	10
228	3
237	3
238	2
239	2
240	2
241	3
242	6
243	2
248	2
249	3
250	7
251	30
252	76
253	16
254	4
255	2
265	3
266	2
267	7
268	4
269	5
