Mass Spectrum: (R)-(+)-1-Benzylglycerol
Formula: C10H14O3
CAS: 56552-80-8
Molecular weight: 182
m/z	intensity
15	1
27	4
29	10
30	1
31	25
32	1
38	3
39	29
40	1
41	9
42	4
43	44
44	9
45	7
50	13
51	42
52	12
53	4
55	1
56	1
57	12
58	10
59	1
60	11
61	118
62	9
63	31
64	9
65	136
66	7
73	3
74	4
75	3
76	3
77	64
78	17
79	73
80	6
86	1
87	1
89	37
90	18
91	999
92	323
93	22
103	5
104	2
105	51
106	15
107	330
108	49
109	3
116	4
117	1
119	2
120	6
121	15
122	4
133	2
134	2
146	1
151	2
163	4
164	2
182	19
183	2
