Mass Spectrum: 7-Heptadecyne, 1-chloro-
Formula: C17H31Cl
CAS: 56554-74-6
Molecular weight: 270
m/z	intensity
26	8
27	158
28	115
29	258
30	13
31	12
32	33
38	7
39	136
40	32
41	640
42	82
43	366
44	20
45	7
46	4
49	12
50	7
51	23
52	48
53	158
54	669
55	564
56	76
57	165
58	11
59	8
60	7
61	5
62	6
63	23
64	7
65	69
66	55
67	899
68	266
69	424
70	50
71	51
72	7
73	8
74	6
75	14
76	7
77	94
78	25
79	215
80	93
81	999
82	496
83	237
84	28
85	19
86	6
87	6
88	7
89	13
90	5
91	84
92	12
93	92
94	40
95	741
96	330
97	97
98	17
99	8
100	6
101	9
102	8
103	15
104	9
105	25
106	7
107	43
108	19
109	269
110	81
111	39
112	10
113	6
114	5
115	14
116	21
117	28
118	15
119	17
120	6
121	29
122	14
123	92
124	34
125	12
126	7
127	5
128	7
129	43
130	57
131	32
132	21
133	8
134	6
135	14
136	6
137	59
138	57
139	11
140	5
141	7
142	6
143	75
144	41
145	33
146	17
147	7
148	5
149	11
150	5
151	79
152	25
153	7
154	4
155	7
156	7
157	56
158	32
159	22
160	12
161	5
162	4
163	9
164	5
165	15
166	10
167	5
168	4
169	5
170	4
171	16
172	18
173	10
174	10
176	4
177	4
178	7
179	6
180	6
185	35
186	11
187	13
188	10
189	4
190	4
191	4
192	4
193	8
194	5
195	3
196	7
197	3
198	3
199	63
200	38
201	28
202	16
203	5
207	8
208	5
210	4
213	12
214	10
215	7
216	5
221	5
222	5
223	4
224	3
227	5
228	4
229	4
230	3
234	4
235	5
236	4
241	6
242	3
243	4
244	3
270	7
271	4
272	5
