Mass Spectrum: 16-Octadecenoic acid, methyl ester
Formula: C19H36O2
CAS: 56554-49-5
Molecular weight: 296
m/z	intensity
26	7
27	92
28	120
29	240
30	9
31	14
32	18
33	3
35	3
36	8
37	3
38	5
39	100
40	23
41	620
42	140
43	430
44	31
45	26
46	3
47	2
50	3
51	6
52	5
53	63
54	120
55	999
56	210
57	220
58	17
59	160
60	13
61	5
62	2
63	2
64	2
65	10
66	12
67	170
68	160
69	570
70	140
71	90
72	10
73	44
74	610
75	104
76	9
77	10
78	5
79	27
80	20
81	150
82	130
83	360
84	270
85	59
86	7
87	400
88	38
89	5
90	2
91	9
92	5
93	21
94	26
95	130
96	230
97	310
98	210
99	29
100	8
101	51
102	7
103	3
104	2
105	6
106	4
107	19
108	20
109	72
110	120
111	140
112	48
113	20
114	27
115	49
116	10
117	3
118	3
119	13
120	7
121	25
122	13
123	77
124	65
125	72
126	16
127	20
128	32
129	40
130	12
131	4
132	3
133	13
134	13
135	26
136	11
137	48
138	56
139	46
140	9
141	36
142	12
143	41
144	7
145	3
146	3
147	11
148	11
149	18
150	9
151	31
152	42
153	29
154	7
155	11
156	5
157	14
158	5
159	3
160	2
161	9
162	6
163	13
164	10
165	21
166	35
167	20
168	5
169	14
170	4
171	11
172	3
173	2
174	2
175	8
176	4
177	8
178	5
179	14
180	61
181	20
182	5
183	9
184	3
185	10
186	4
187	2
188	2
189	6
190	3
191	6
192	4
193	12
194	15
195	8
196	3
197	4
198	2
199	10
200	5
201	3
202	2
203	4
204	3
205	3
206	3
207	14
208	13
209	8
210	4
211	3
212	2
213	8
214	5
215	2
217	3
218	2
219	2
220	24
221	18
222	85
223	20
224	4
225	3
226	2
227	4
228	4
229	3
232	1
233	2
234	2
235	15
236	14
237	4
238	2
239	3
240	2
241	4
242	2
243	1
245	2
246	11
247	5
248	2
249	3
250	3
251	2
252	2
253	7
254	3
255	4
256	2
257	1
258	1
262	3
263	4
264	210
265	120
266	22
267	6
268	2
269	2
270	1
278	3
279	2
281	2
282	1
283	1
284	2
285	1
294	2
295	2
296	24
297	6
298	6
299	2
