Mass Spectrum: 12-Heptadecyn-1-ol
Formula: C17H32O
CAS: 56554-76-8
Molecular weight: 252
m/z	intensity
26	7
27	38
28	2
29	61
30	4
31	42
32	0
38	3
39	44
40	14
41	235
42	26
43	95
44	13
45	6
46	2
50	4
51	9
52	18
53	56
54	292
55	308
56	34
57	35
58	4
59	4
63	3
65	21
66	29
67	357
68	154
69	130
70	20
71	21
72	4
75	2
77	32
78	11
79	104
80	65
81	467
82	223
83	75
84	13
85	17
86	4
88	1
89	2
91	28
92	7
93	70
94	38
95	260
96	999
97	117
98	18
99	7
100	2
101	2
103	1
104	1
105	8
106	3
107	38
108	17
109	73
110	219
111	30
112	8
113	4
115	3
116	2
117	2
118	2
119	4
120	2
121	38
122	13
123	45
124	26
125	8
126	4
127	2
128	2
129	2
130	1
131	2
132	1
133	2
134	1
135	25
136	12
137	28
138	17
139	5
140	3
141	3
148	2
149	12
150	6
151	8
152	8
153	3
154	3
155	3
159	2
160	2
161	2
162	2
163	7
164	4
165	4
166	4
167	3
168	4
169	2
177	5
178	2
179	2
180	2
181	3
182	10
183	3
184	1
189	2
191	3
192	3
193	2
194	2
195	4
196	5
197	2
205	3
206	2
207	2
208	3
209	4
210	8
211	2
217	2
218	3
219	8
220	4
221	1
222	1
223	2
224	3
225	1
234	4
235	2
236	4
237	1
238	2
239	1
240	1
241	1
242	1
250	1
251	1
252	18
253	5
254	2
