Mass Spectrum: 4-Heptadecyne, 1-chloro-
Formula: C17H31Cl
CAS: 56554-73-5
Molecular weight: 270
m/z	intensity
26	8
27	186
28	104
29	344
30	9
31	2
38	3
39	148
40	33
41	734
42	97
43	637
44	26
45	4
49	5
50	8
51	44
52	51
53	172
54	223
55	567
56	98
57	297
58	13
59	2
60	4
61	3
62	5
63	23
64	7
65	93
66	59
67	734
68	186
69	306
70	65
71	95
72	9
73	6
74	7
75	38
76	7
77	213
78	43
79	358
80	116
81	999
82	390
83	232
84	30
85	41
86	4
87	10
88	251
89	35
90	88
91	148
92	21
93	172
94	66
95	558
96	260
97	158
98	17
99	9
100	2
101	18
102	65
103	21
104	21
105	40
106	10
107	86
108	35
109	186
110	60
111	44
112	9
113	8
114	3
115	44
116	50
117	43
118	21
119	20
120	6
121	73
122	28
123	86
124	34
125	12
126	4
127	7
128	13
129	53
130	190
131	32
132	58
133	12
134	3
135	44
136	19
137	37
138	17
139	3
140	1
141	5
142	5
143	223
144	50
145	73
146	18
147	6
149	12
150	5
151	12
152	9
153	2
154	2
155	4
156	10
157	381
158	120
159	148
160	38
161	4
162	1
163	5
164	2
165	7
166	21
167	5
168	1
169	7
170	5
171	89
172	26
173	36
174	10
175	1
177	4
178	3
179	60
180	15
181	1
183	2
185	15
186	4
187	5
188	2
191	4
192	3
193	23
194	4
195	1
197	1
198	1
199	4
200	2
201	1
205	3
206	13
207	63
208	13
209	2
211	2
213	4
214	2
215	2
217	2
218	2
219	7
221	1
227	3
228	1
229	3
234	2
235	26
236	6
237	2
241	2
242	10
243	4
244	5
245	1
270	3
272	2
