Mass Spectrum: Butanoic acid, 2-ethyl-, 1,2,3-propanetriyl ester
Formula: C21H38O6
CAS: 56554-54-2
Molecular weight: 386
m/z	intensity
26	25
27	200
28	120
29	215
30	6
31	21
32	22
36	2
37	6
38	15
39	160
40	24
41	300
42	64
43	930
44	39
45	140
46	5
47	4
49	1
50	6
51	12
52	4
53	27
54	10
55	240
56	24
57	38
58	4
59	21
60	36
61	8
62	3
63	3
65	4
66	3
67	12
68	16
69	95
70	57
71	460
72	28
73	730
74	45
75	5
76	1
77	2
78	1
79	3
80	2
81	8
82	6
83	18
84	6
85	8
86	7
87	360
88	999
89	49
90	5
91	3
92	1
93	2
94	2
95	5
96	4
97	8
98	7
99	180
100	12
101	61
102	4
103	1
104	1
105	2
106	1
107	1
108	1
109	3
110	2
111	3
112	2
113	1
114	2
115	3
116	1
117	2
118	1
119	2
120	1
121	2
122	1
123	2
124	2
125	2
126	1
127	2
128	2
129	2
130	1
131	1
132	1
133	1
134	1
135	3
136	1
137	2
138	1
139	1
140	1
141	3
142	2
143	2
144	1
145	1
146	1
147	1
148	1
149	2
150	1
151	1
152	1
153	1
154	1
155	2
156	1
157	2
158	1
159	1
166	1
167	1
168	1
169	2
170	1
171	3
172	1
173	7
174	1
177	1
178	1
179	1
180	1
185	2
186	1
198	1
199	1
200	1
205	1
207	1
213	1
214	2
215	1
220	1
221	1
227	1
241	1
242	4
243	1
255	1
256	1
257	4
258	1
271	2
272	8
273	2
294	1
313	1
315	1
355	1
