Mass Spectrum: 4-Pentadecyne, 15-chloro-
Formula: C15H27Cl
CAS: 56554-70-2
Molecular weight: 242
m/z	intensity
26	5
27	149
28	4
29	192
30	5
31	1
32	1
38	4
39	125
40	23
41	543
42	122
43	342
44	11
49	24
50	4
51	19
52	15
53	78
54	163
55	789
56	140
57	157
58	7
59	1
60	1
61	2
62	5
63	49
64	3
65	27
66	19
67	421
68	122
69	438
70	90
71	32
72	2
73	1
74	1
75	11
76	5
77	48
78	8
79	54
80	15
81	327
82	187
83	219
84	43
85	8
86	1
87	1
88	1
89	6
90	11
91	999
92	52
93	274
94	19
95	163
96	116
97	108
98	14
99	2
100	1
101	1
102	1
103	6
104	76
105	163
106	33
107	49
108	5
109	108
110	28
111	11
112	4
113	1
115	1
116	2
117	11
118	26
119	20
120	9
121	7
122	3
123	102
124	39
125	7
126	1
127	1
128	1
129	2
130	4
131	9
132	14
133	8
134	5
135	3
136	1
137	16
138	7
139	1
140	1
141	2
142	1
143	7
144	5
145	8
146	18
147	4
148	5
149	2
150	1
151	3
152	1
153	1
154	1
155	1
156	1
157	7
158	4
159	4
160	2
161	1
162	1
163	2
164	1
165	1
166	1
167	1
168	1
169	1
170	1
171	4
172	3
173	2
174	6
175	1
176	2
177	1
178	1
185	9
186	5
187	4
188	2
189	1
199	17
200	5
201	6
202	1
203	1
205	1
206	1
213	4
214	1
215	1
216	1
217	1
218	1
219	1
220	1
242	2
243	1
244	1
245	1
246	1
