Mass Spectrum: 11,14-Octadecadienoic acid, methyl ester
Formula: C19H34O2
CAS: 56554-61-1
Molecular weight: 294
m/z	intensity
27	100
28	50
29	170
31	10
32	10
39	110
40	20
41	640
42	110
43	280
44	10
45	20
50	10
51	20
52	20
53	110
54	440
55	670
56	70
57	110
58	10
59	140
60	10
65	50
66	50
67	999
68	430
69	330
70	40
71	50
73	30
74	130
75	20
77	90
78	60
79	240
80	160
81	850
82	630
83	210
84	40
85	30
87	80
88	10
91	70
92	10
93	110
94	90
95	520
96	500
97	150
98	30
99	10
101	20
105	30
106	10
107	50
108	60
109	280
110	230
111	70
112	10
113	10
115	30
119	20
120	10
121	60
122	40
123	150
124	100
125	40
126	10
127	10
128	10
129	30
131	10
133	10
134	10
135	60
136	60
137	80
138	60
139	20
140	10
141	10
143	20
145	10
147	10
149	40
150	80
151	40
152	30
153	10
154	10
155	10
157	10
159	10
161	10
163	30
164	50
165	30
166	10
167	10
168	10
173	10
177	20
178	40
179	20
180	10
181	10
182	10
187	10
191	10
192	20
193	10
195	10
196	10
205	10
206	10
209	10
210	10
220	30
223	10
224	10
234	10
251	10
262	70
263	120
264	30
265	10
294	260
295	60
296	10
