Mass Spectrum: 5-Octadecenoic acid, methyl ester
Formula: C19H36O2
CAS: 56554-45-1
Molecular weight: 296
m/z	intensity
26	6
27	130
28	52
29	330
30	9
31	13
32	5
33	3
36	3
37	2
38	3
39	110
40	24
41	730
42	110
43	710
44	28
45	24
46	1
47	1
50	2
51	6
52	7
53	90
54	290
55	660
56	140
57	320
58	16
59	160
60	7
61	4
62	1
63	2
64	1
65	26
66	28
67	460
68	340
69	400
70	100
71	130
72	16
73	26
74	999
75	140
76	8
77	30
78	12
79	110
80	100
81	420
82	260
83	330
84	410
85	130
86	10
87	240
88	29
89	3
90	1
91	21
92	7
93	37
94	44
95	210
96	490
97	340
98	230
99	61
100	11
101	51
102	6
103	1
104	1
105	9
106	6
107	22
108	23
109	130
110	190
111	150
112	45
113	31
114	49
115	54
116	9
117	2
118	2
119	20
120	7
121	28
122	13
123	120
124	79
125	62
126	16
127	39
128	51
129	34
130	8
131	2
132	1
133	15
134	15
135	23
136	9
137	61
138	56
139	32
140	9
141	52
142	14
143	26
144	4
145	2
146	1
147	10
148	11
149	12
150	6
151	38
152	44
153	19
154	5
155	14
156	4
157	11
158	3
159	1
161	7
162	3
163	6
164	7
165	23
166	40
167	13
168	4
169	22
170	4
171	8
172	2
174	1
175	5
176	2
177	4
178	4
179	14
180	110
181	22
182	4
183	12
184	3
185	6
186	3
187	1
189	3
190	2
191	3
192	2
193	11
194	23
195	6
196	2
197	3
198	1
199	8
200	4
201	1
203	2
204	1
205	2
206	2
207	8
208	8
209	4
210	2
211	2
212	1
213	8
214	4
215	1
217	2
218	1
219	1
220	34
221	20
222	190
223	38
224	4
225	2
226	1
227	3
228	3
229	2
230	4
231	3
232	14
233	1
234	1
235	13
236	16
237	4
238	1
239	2
240	1
241	2
242	1
245	2
246	13
247	26
248	6
249	3
250	1
253	7
254	2
255	3
256	1
263	4
264	230
265	78
266	12
267	4
268	2
269	1
278	3
279	1
294	1
295	1
296	31
297	7
298	3
299	1
