Mass Spectrum: 1,5-Cyclooctadiene, 3-methyl-
Formula: C9H14
CAS: 56564-88-6
Molecular weight: 122
m/z	intensity
25	2
26	30
27	253
28	60
29	70
30	2
31	0
36	0
37	8
38	28
39	385
40	12
41	238
42	59
43	10
44	0
45	1
46	1
47	0
48	0
49	2
50	47
51	107
52	46
53	269
54	158
55	67
56	4
57	3
58	3
59	4
60	2
61	3
62	11
63	29
64	7
65	70
66	62
67	659
68	999
69	46
70	1
71	0
73	1
74	6
75	3
76	3
77	151
78	47
79	396
80	156
81	369
82	24
83	1
84	0
85	1
86	1
87	1
88	0
89	4
90	1
91	105
92	31
93	255
94	252
95	18
96	1
97	0
98	0
99	0
101	0
102	1
103	8
104	2
105	20
106	3
107	229
108	18
109	1
110	0
111	0
113	0
114	0
115	3
116	0
117	1
118	0
119	1
120	0
121	8
122	93
123	10
124	0
