Mass Spectrum: Ethyl (1H)-1,2,4-triazole-1-acetate
Formula: C6H9N3O2
CAS: 56563-01-0
Molecular weight: 155
m/z	intensity
40	53
41	27
42	73
43	31
44	9
45	14
53	16
54	32
55	651
56	258
57	25
58	6
59	19
69	18
70	35
71	5
73	6
82	999
83	331
84	20
96	24
110	162
111	10
155	136
156	47
