Mass Spectrum: Furoylglycine
Formula: C7H7NO4
CAS: 5657-19-2
Molecular weight: 169
m/z	intensity
39	453
45	46
56	32
67	38
68	24
74	7
81	9
82	8
95	999
96	72
105	1
108	1
109	2
112	1
124	96
125	458
126	31
151	2
152	2
169	11
170	5
