Mass Spectrum: 1,2-Naphthalenediol, 1,2,3,4-tetrahydro-1,3,3-trimethyl-, cis-
Formula: C13H18O2
CAS: 56588-37-5
Molecular weight: 206
m/z	intensity
41	39
43	188
44	9
45	9
50	9
51	39
52	9
53	19
55	9
57	19
58	9
59	19
60	9
63	29
64	19
65	39
66	9
67	9
71	9
72	9
75	9
76	9
77	59
78	19
79	19
89	19
90	19
91	178
92	19
102	9
103	29
104	9
105	29
115	89
116	29
117	99
118	79
119	999
120	89
121	59
127	19
128	59
129	49
130	39
131	39
132	29
133	19
134	604
135	59
141	19
142	19
143	19
144	9
145	237
146	29
147	9
170	9
172	9
173	108
174	19
188	198
189	29
191	198
192	29
206	9
