Mass Spectrum: Estra-1,3,5(10)-triene-3,17-diol, 1-methyl-, 17-acetate 3-(trifluoroacetate), (17.beta.)-
Formula: C23H27F3O4
CAS: 56588-09-1
Molecular weight: 424
m/z	intensity
41	120
42	20
43	800
44	950
45	90
46	20
47	240
49	20
50	280
51	100
53	50
55	150
57	40
58	10
59	550
60	20
67	70
69	999
70	30
71	20
73	100
77	410
78	280
79	110
80	20
81	210
82	10
83	20
85	100
91	90
92	20
93	100
94	90
95	130
96	20
97	60
105	50
107	150
108	60
109	100
115	60
116	20
117	60
118	10
119	20
121	70
127	70
128	130
129	200
130	30
131	60
132	10
133	20
134	10
135	40
137	920
138	80
139	40
141	100
142	70
143	80
144	20
145	60
146	20
147	100
148	10
155	150
156	70
157	70
158	40
159	200
160	30
161	10
165	30
166	20
167	20
168	30
169	40
170	20
171	50
172	30
173	50
178	10
179	10
180	10
181	30
199	30
200	10
201	60
207	30
208	10
209	30
210	10
215	320
216	60
217	50
219	90
220	30
221	30
223	40
237	210
238	30
239	30
241	30
242	10
243	180
244	30
251	130
252	40
253	20
254	30
255	40
256	110
257	40
265	30
266	40
267	70
268	70
269	220
270	90
281	30
282	110
283	60
292	90
293	30
294	40
295	30
296	40
307	20
308	30
309	50
310	90
311	40
321	70
322	50
323	110
324	40
335	60
336	150
337	50
338	50
349	90
350	40
363	40
364	410
365	80
367	10
424	390
425	90
426	20
