Mass Spectrum: Silane, trimethyl(phenylacetyl)-
Formula: C11H16OSi
CAS: 56583-94-9
Molecular weight: 192
m/z	intensity
27	1
28	0
29	13
30	0
31	4
38	1
39	16
40	1
41	4
42	3
43	46
44	19
45	115
46	7
47	6
50	1
51	6
52	2
53	4
54	1
55	7
56	1
57	9
58	13
59	8
60	1
61	1
62	1
63	8
64	2
65	36
66	2
67	2
69	1
70	2
71	3
72	13
73	999
74	82
75	45
76	2
77	0
78	0
79	1
81	0
83	1
89	7
90	4
91	56
92	5
93	2
95	1
99	1
101	69
102	7
103	4
104	0
105	0
106	0
107	3
115	3
116	0
117	3
118	1
119	4
121	33
122	4
123	1
129	0
131	2
132	0
133	3
134	0
135	4
136	0
137	0
143	0
145	2
146	0
147	2
148	1
149	52
150	8
151	2
160	0
161	3
162	0
164	157
165	26
166	7
167	0
176	0
177	3
178	0
192	1
193	1
194	0
