Mass Spectrum: 1-Butene, 3-butoxy-2-methyl-
Formula: C9H18O
CAS: 56585-28-5
Molecular weight: 142
m/z	intensity
26	23
27	250
28	66
29	370
30	9
31	19
33	1
37	4
38	20
39	263
40	67
41	792
42	110
43	328
44	24
45	291
46	7
47	0
48	0
49	1
50	7
51	15
52	11
53	71
54	27
55	122
56	52
57	366
58	82
59	8
61	0
62	1
63	1
65	8
66	5
67	60
68	41
69	385
70	232
71	999
72	60
73	6
74	0
76	0
77	0
79	0
80	0
81	1
83	12
84	3
85	23
86	162
87	174
88	8
89	0
91	0
92	0
93	1
94	0
95	1
96	0
97	1
99	69
100	6
101	17
102	1
103	0
104	0
106	0
108	0
109	0
110	0
111	2
113	3
114	1
115	0
116	0
117	0
118	0
121	0
124	0
125	0
127	82
128	5
129	0
131	0
133	0
134	0
135	0
136	0
137	0
139	0
140	0
141	0
142	4
