Mass Spectrum: Cyclohexanecarboxylic acid, 2-methyl-
Formula: C8H14O2
CAS: 56586-13-1
Molecular weight: 142
m/z	intensity
41	562
42	63
43	242
45	169
47	23
48	2
52	18
53	160
54	9
55	999
56	38
57	72
58	20
59	4
60	71
61	14
62	4
63	10
65	36
66	8
67	268
68	132
69	148
70	244
71	48
73	464
74	101
75	10
77	43
78	0
79	82
80	28
81	276
82	445
83	184
84	18
86	82
87	198
88	16
89	1
93	21
94	34
95	154
96	494
97	234
98	2
99	93
100	108
101	21
102	1
103	1
104	1
105	3
106	15
107	3
109	15
110	1
111	7
113	60
114	12
115	1
116	0
121	0
122	8
123	13
124	492
125	64
127	208
128	11
129	1
140	14
141	5
142	158
143	68
144	5
145	0
