Mass Spectrum: 9,12-Octadecadienoic acid, (2-phenyl-1,3-dioxolan-4-yl)methyl ester, trans-
Formula: C28H42O4
CAS: 56599-48-5
Molecular weight: 442
m/z	intensity
25	6
26	21
27	103
28	324
29	227
30	13
31	54
32	28
35	5
36	26
37	6
38	13
39	88
40	19
41	455
42	68
43	351
44	66
45	84
46	7
47	15
48	2
49	3
50	26
51	82
52	20
53	57
54	220
55	544
56	82
57	303
58	28
59	19
60	24
61	24
62	6
63	15
64	6
65	63
66	40
67	572
68	172
69	275
70	52
71	103
72	11
73	75
74	24
75	28
76	15
77	289
78	89
79	324
80	179
81	413
82	158
83	144
84	40
85	68
86	10
87	24
88	89
89	34
90	39
91	758
92	124
93	158
94	75
95	248
96	117
97	89
98	52
99	42
100	17
101	20
102	6
103	19
104	43
105	999
106	137
107	206
108	55
109	110
110	70
111	44
112	18
113	26
114	6
115	15
116	88
117	38
118	13
119	58
120	49
121	74
122	51
123	103
124	44
125	24
126	9
127	20
128	6
129	234
130	24
131	23
132	8
133	39
134	22
135	66
136	32
137	37
138	19
139	12
140	6
141	18
142	8
143	23
144	8
145	16
146	13
147	31
148	16
149	268
150	55
151	28
152	14
153	13
154	6
155	24
156	8
157	25
158	8
159	15
160	6
161	27
162	96
163	117
164	74
165	40
166	13
167	17
168	7
169	11
170	6
171	23
172	14
173	14
174	6
175	27
176	9
177	22
178	17
179	96
180	24
181	39
182	11
183	11
184	3
185	42
186	11
187	8
188	2
189	16
190	8
191	14
192	9
193	13
194	6
195	8
196	6
197	11
198	3
199	15
200	4
201	5
202	3
203	11
204	4
205	8
206	6
207	13
208	4
209	8
210	5
211	13
212	4
213	10
214	3
215	3
216	2
217	7
218	7
219	16
220	31
221	12
222	3
223	8
224	4
225	25
226	9
227	12
228	4
229	4
230	2
231	4
232	4
233	96
234	22
235	9
236	4
237	7
238	8
239	25
240	8
241	12
242	4
243	4
244	5
245	5
246	4
247	23
248	4
249	4
250	2
251	5
252	5
253	8
254	4
255	4
256	4
257	3
258	3
259	20
260	10
261	21
262	73
263	47
264	13
265	13
266	4
267	6
268	5
269	10
270	8
271	3
272	1
273	2
274	2
275	11
276	6
277	8
278	7
279	40
280	18
281	7
282	2
283	10
284	6
285	3
286	2
287	2
288	1
289	17
290	4
291	3
292	2
293	12
294	4
295	4
296	3
297	2
298	2
299	1
300	1
301	2
302	2
303	8
304	4
305	8
306	4
307	5
308	3
309	4
310	2
311	2
312	2
313	2
314	2
315	2
316	2
317	7
318	4
319	2
320	2
321	4
322	2
323	2
324	2
325	2
326	2
327	2
328	2
329	3
330	2
331	16
332	5
333	4
334	7
335	17
336	255
337	68
338	17
339	6
340	2
341	1
342	3
343	4
344	10
345	4
346	2
347	2
348	2
349	2
351	82
352	23
353	8
354	4
355	2
357	7
358	3
359	2
360	1
365	26
366	8
367	4
368	2
369	2
370	1
371	11
372	4
373	2
374	2
375	1
378	1
379	2
380	4
381	2
382	2
383	1
384	2
385	6
386	3
387	2
388	1
389	2
390	1
391	1
394	1
395	1
396	1
397	1
398	1
399	5
400	2
401	2
402	1
407	2
408	2
409	1
410	1
413	2
414	2
415	2
417	2
418	2
419	2
420	2
440	9
441	35
442	96
443	32
444	7
445	2
