Mass Spectrum: 2-Hexadecanol, 1-[(2,2-dimethyl-1,3-dioxolan-4-yl)methoxy]-, acetate
Formula: C24H46O5
CAS: 56599-80-5
Molecular weight: 414
m/z	intensity
26	2
27	14
28	69
29	50
30	2
31	16
32	8
36	1
37	1
38	1
39	10
40	4
41	94
42	27
43	574
44	19
45	17
46	1
51	1
52	1
53	5
54	15
55	94
56	19
57	135
58	24
59	54
60	4
61	20
62	1
65	2
66	2
67	35
68	16
69	75
70	15
71	48
72	39
73	56
74	4
75	4
76	1
77	1
78	2
79	4
80	3
81	36
82	18
83	82
84	11
85	27
86	17
87	29
88	4
89	1
91	2
92	1
93	3
94	2
95	30
96	14
97	58
98	10
99	15
100	35
101	999
102	55
103	8
104	1
105	1
106	1
107	2
108	2
109	14
110	4
111	24
112	4
113	16
114	43
115	37
116	10
117	29
118	2
119	1
120	1
121	2
122	2
123	6
124	3
125	8
126	2
127	4
128	3
129	2
130	2
131	3
132	1
133	4
134	1
135	2
136	1
137	2
138	2
139	3
140	1
141	4
142	2
143	3
144	1
145	6
146	1
147	1
149	2
150	1
151	1
152	1
153	2
154	1
155	3
156	2
157	3
158	1
159	39
160	4
161	1
163	1
165	1
166	1
167	1
168	1
169	3
170	1
171	3
172	1
173	4
174	1
175	1
179	1
180	2
181	1
182	1
183	2
184	1
185	2
193	1
194	2
195	1
196	1
197	2
198	1
199	1
207	1
208	1
209	1
210	1
211	2
212	1
213	2
214	1
215	1
219	1
220	1
221	1
222	8
223	4
224	3
225	2
227	2
237	1
238	2
239	8
240	2
241	3
242	1
243	1
251	1
252	1
253	2
254	1
255	2
256	1
257	1
266	1
267	1
268	1
269	1
270	1
271	1
279	1
280	1
281	2
282	1
283	46
284	10
285	2
286	1
295	1
296	8
297	3
298	1
299	1
300	1
301	2
302	1
311	1
313	2
314	1
315	1
339	14
340	4
341	5
342	2
343	1
352	1
353	1
354	8
355	3
356	1
357	1
371	1
372	1
399	182
400	45
401	7
402	1
