Mass Spectrum: 8,11-Eicosadienoic acid, methyl ester
Formula: C21H38O2
CAS: 56599-56-5
Molecular weight: 322
m/z	intensity
26	13
27	139
28	177
29	279
30	11
31	13
32	38
33	5
36	8
38	7
39	97
40	26
41	677
42	81
43	432
44	38
45	30
50	6
51	12
52	13
53	118
54	372
55	711
56	83
57	194
58	14
59	152
60	12
61	6
63	8
64	5
65	51
66	79
67	999
68	483
69	423
70	55
71	61
72	9
73	33
74	127
75	22
76	6
77	135
78	51
79	389
80	288
81	847
82	576
83	296
84	55
85	66
86	10
87	118
88	13
89	5
91	118
92	32
93	220
94	211
95	627
96	466
97	203
98	41
99	26
100	7
101	27
102	7
103	6
104	15
105	39
106	33
107	102
108	161
109	313
110	194
111	79
112	16
113	17
114	8
115	42
116	8
117	19
118	11
119	33
120	36
121	127
122	135
123	177
124	135
125	45
126	12
127	19
128	13
129	34
130	7
131	26
132	13
133	33
134	17
135	135
136	152
137	127
138	110
139	35
140	23
141	31
142	7
143	18
144	5
145	18
146	13
147	17
148	11
149	90
150	194
151	72
152	70
153	22
154	20
155	15
156	6
157	11
158	5
159	19
160	8
161	12
162	6
163	49
164	98
165	45
166	43
167	22
168	24
169	11
170	4
171	13
172	4
173	21
174	16
175	9
176	5
177	35
178	53
179	30
180	27
181	19
182	19
183	6
184	5
185	10
186	5
187	11
188	5
189	8
190	5
191	20
192	30
193	22
194	16
195	19
196	15
197	6
198	5
199	5
200	5
201	8
202	5
203	6
204	4
205	35
206	33
207	16
208	11
209	16
210	11
211	5
213	4
215	5
216	4
217	4
219	10
220	18
221	9
222	5
223	14
224	11
225	5
231	4
232	5
233	8
234	9
235	5
236	5
237	9
238	8
239	5
241	4
245	4
246	8
247	6
248	37
249	11
250	4
251	6
252	5
253	4
254	4
260	5
261	8
262	16
263	6
265	8
266	6
272	5
273	7
274	4
275	5
279	6
280	5
281	4
290	69
291	94
292	23
293	6
294	6
319	4
320	5
322	211
323	46
324	8
325	3
