Mass Spectrum: 1,3-Dioxolane, 4-ethyl-4-methyl-2-pentadecyl-
Formula: C21H42O2
CAS: 56599-78-1
Molecular weight: 326
m/z	intensity
26	4
27	20
28	36
29	56
30	3
31	7
32	6
37	2
38	4
39	24
40	7
41	159
42	29
43	166
44	22
45	72
46	3
47	1
49	2
50	3
51	4
52	2
53	15
54	19
55	131
56	46
57	180
58	40
59	7
60	6
61	2
63	2
65	4
66	9
67	45
68	46
69	562
70	65
71	76
72	11
73	16
74	3
75	7
76	2
77	4
78	3
79	6
80	6
81	38
82	65
83	65
84	20
85	39
86	15
87	26
88	3
89	4
91	4
92	3
93	4
94	5
95	38
96	40
97	45
98	15
99	10
100	3
101	4
102	2
103	1
104	2
105	4
106	2
107	4
108	3
109	18
110	15
111	21
112	8
113	7
114	2
115	999
116	72
117	7
118	2
119	2
120	2
121	2
122	2
123	9
124	9
125	9
126	6
127	6
128	4
129	4
130	3
131	2
132	2
133	2
134	2
135	4
136	2
137	6
138	5
139	4
140	4
141	6
142	2
143	2
144	1
145	2
147	1
148	1
149	5
150	2
151	3
152	4
153	3
154	3
155	3
156	2
157	2
158	1
159	3
161	1
162	1
163	2
164	1
165	4
166	4
167	3
168	2
169	2
170	1
171	2
172	1
173	1
174	1
175	1
177	1
178	1
179	2
180	2
181	2
182	2
183	2
184	2
185	3
186	1
187	2
188	2
189	2
190	1
191	2
192	2
193	2
194	4
195	2
196	4
197	3
198	2
199	2
200	2
201	2
202	2
203	2
204	2
205	1
206	1
207	1
208	1
209	1
210	2
211	2
212	2
213	2
214	1
215	1
216	1
217	3
218	4
219	9
220	2
221	2
222	6
223	2
224	2
225	2
226	1
227	1
229	1
239	4
240	2
241	2
242	1
254	2
255	2
256	1
257	2
258	1
259	1
279	1
280	1
281	1
297	8
298	2
299	1
311	2
312	1
325	6
326	3
327	1
