Mass Spectrum: Pyrrolidine, 1-(1-oxo-16-octadecenyl)-
Formula: C22H41NO
CAS: 56599-70-3
Molecular weight: 335
m/z	intensity
39	25
40	16
41	150
42	40
43	140
44	17
45	6
53	17
54	25
55	330
56	66
57	40
58	6
59	5
64	5
65	6
66	5
67	33
68	29
69	100
70	190
71	110
72	82
73	7
75	5
77	5
79	10
80	5
81	24
82	12
83	26
84	16
85	78
86	7
91	6
93	6
94	5
95	14
96	10
97	18
98	97
99	18
100	9
108	5
109	7
110	12
111	16
112	28
113	999
114	65
115	8
116	9
124	6
125	5
126	330
127	65
128	9
135	5
138	5
140	53
141	14
152	5
154	23
155	11
168	45
169	12
182	28
183	9
196	26
197	7
210	22
211	7
224	32
225	7
238	29
239	8
252	19
253	8
264	5
265	5
266	23
267	7
278	6
280	33
281	11
282	5
292	10
293	6
294	7
306	11
307	6
320	11
321	6
333	6
334	20
335	260
336	68
337	13
