Mass Spectrum: Hexadecanoic acid, 2-[(1-oxotetradecyl)oxy]-1,3-propanediyl ester
Formula: C49H94O6
CAS: 56599-89-4
Molecular weight: 778
m/z	intensity
18	14
26	4
27	58
28	17
29	152
30	4
31	6
39	28
40	7
41	302
42	58
43	735
44	23
45	16
53	12
54	36
55	397
56	97
57	999
58	47
59	17
60	205
61	50
62	2
65	2
66	2
67	117
68	47
69	323
70	70
71	617
72	36
73	220
74	27
75	5
77	2
78	2
79	20
80	12
81	147
82	58
83	270
84	223
85	373
86	25
87	42
88	6
89	2
91	2
93	22
94	12
95	235
96	58
97	205
98	382
99	94
100	247
101	244
102	9
103	2
105	2
106	1
107	25
108	7
109	126
110	27
111	117
112	123
113	52
114	9
115	32
116	47
117	31
118	2
119	2
121	29
122	6
123	64
124	16
125	41
126	31
127	28
128	6
129	102
130	11
131	2
133	2
134	2
135	22
136	5
137	33
138	12
139	19
140	16
141	18
142	6
143	15
144	3
145	1
147	2
149	10
150	3
151	12
152	7
153	11
154	18
155	14
156	4
157	18
158	105
159	16
160	2
163	5
164	2
165	5
166	8
167	9
168	10
169	10
170	6
171	167
172	24
173	4
177	2
179	3
180	2
181	6
182	7
183	24
184	5
185	58
186	10
187	3
191	4
192	2
193	5
194	7
195	6
196	5
197	8
198	2
199	18
200	5
201	2
207	2
208	3
209	9
210	22
211	617
212	94
213	55
214	10
215	2
217	1
219	4
220	3
221	5
222	2
223	2
224	2
225	8
226	5
227	76
228	15
229	5
236	7
237	13
238	40
239	450
240	82
241	27
242	7
243	2
251	2
252	7
253	11
254	5
255	20
256	17
257	7
258	1
262	1
265	3
266	3
267	14
268	4
269	29
270	7
271	3
279	1
280	18
281	12
282	4
283	41
284	15
285	185
286	36
287	5
293	2
294	4
295	5
296	3
297	19
298	6
299	7
300	1
303	5
304	1
308	4
309	5
310	4
311	47
312	23
313	308
314	67
315	10
316	1
321	1
323	3
324	2
325	13
326	50
327	34
328	6
329	1
331	10
332	2
337	4
338	2
339	194
340	47
341	13
342	2
351	2
352	2
353	17
354	79
355	58
356	12
357	2
365	5
366	3
367	338
368	88
369	15
370	2
379	1
380	2
381	48
382	15
383	7
393	3
394	1
395	66
396	24
397	5
398	1
399	1
407	1
409	50
410	16
411	4
414	1
421	2
422	1
423	111
424	44
425	9
426	1
436	1
437	38
438	15
439	4
448	3
449	3
450	1
451	33
452	13
453	3
465	32
466	13
467	3
477	2
478	1
479	82
480	31
481	7
482	1
493	31
494	16
495	7
496	2
507	29
508	12
509	15
510	5
511	1
521	32
522	100
523	397
524	144
525	30
526	5
527	1
535	3
536	2
537	2
548	2
549	13
550	40
551	161
552	61
553	13
554	2
564	7
565	3
566	1
567	4
568	2
569	1
577	1
578	2
579	6
580	2
581	1
582	1
583	1
592	11
593	5
594	1
595	5
596	2
597	1
606	1
607	1
608	1
611	2
612	1
621	1
622	2
623	1
624	1
625	1
636	1
637	1
638	1
652	1
653	1
667	1
668	1
682	1
683	1
697	1
698	1
712	1
713	1
714	1
727	1
728	1
760	2
761	1
762	1
777	1
778	1
