Mass Spectrum: 1-Hexadecanol, 1-[(2,2-dimethyl-1,3-dioxolan-4-yl)methoxy]-
Formula: C22H44O4
CAS: 56599-81-6
Molecular weight: 372
m/z	intensity
39	17
40	5
41	172
42	45
43	446
44	38
45	45
46	1
47	1
50	1
51	1
52	1
53	9
54	19
55	178
56	41
57	297
58	142
59	297
60	27
61	33
62	1
63	1
65	2
66	2
67	45
68	19
69	130
70	73
71	95
72	60
73	86
74	10
75	26
76	1
77	2
78	2
79	6
80	4
81	44
82	20
83	119
84	14
85	38
86	22
87	47
88	553
89	32
90	4
91	2
92	1
93	5
94	2
95	38
96	15
97	89
98	11
99	28
100	27
101	999
102	63
103	14
104	1
105	2
106	1
107	2
108	1
109	17
110	5
111	33
112	5
113	10
114	27
115	107
116	20
117	125
118	8
119	5
120	1
121	2
122	1
123	7
124	3
125	12
126	2
127	4
128	8
129	2
130	2
131	70
132	5
133	26
134	2
135	8
136	1
137	4
138	2
139	4
140	1
141	4
142	1
143	2
144	1
145	4
146	26
147	5
148	1
149	2
150	1
151	2
152	1
153	2
154	1
155	3
156	1
157	1
158	1
159	5
160	1
161	1
163	1
165	1
166	1
167	2
168	1
169	2
170	1
171	1
172	1
173	1
174	1
175	22
176	2
177	1
178	1
179	1
180	2
181	1
182	1
183	1
184	1
185	2
186	1
187	1
193	1
194	1
195	1
196	1
197	1
198	1
199	1
200	1
201	1
202	1
206	1
207	1
208	1
209	1
210	1
211	1
212	1
213	1
214	1
215	1
219	1
220	1
221	1
222	2
223	2
224	1
225	4
226	1
227	2
228	1
229	1
239	3
240	3
241	10
242	2
243	1
251	1
252	1
253	1
254	1
255	1
256	1
257	1
258	1
259	1
265	1
266	1
267	1
268	1
269	2
270	1
271	2
272	1
281	1
282	1
283	7
284	2
285	1
295	1
296	2
297	2
298	1
299	1
300	1
301	1
312	1
313	2
314	3
315	1
316	1
339	3
340	1
341	8
342	2
343	1
352	1
353	1
354	1
355	3
357	154
358	35
359	5
360	1
371	1
