Mass Spectrum: Pyrrolidine, 1-(1-oxo-5-octadecenyl)-
Formula: C22H41NO
CAS: 56599-67-8
Molecular weight: 335
m/z	intensity
39	16
40	5
41	89
42	26
43	149
44	11
45	12
53	12
54	21
55	133
56	38
57	33
60	9
67	36
68	17
69	33
70	101
71	56
72	52
73	5
75	6
77	6
79	10
81	19
82	6
83	12
84	9
85	96
86	6
95	10
96	7
97	10
98	65
99	10
109	5
111	8
112	21
113	999
114	92
115	7
126	64
127	22
140	6
152	6
166	17
167	6
180	26
181	7
194	18
195	5
208	7
222	6
236	6
250	5
334	8
335	52
336	14
