Mass Spectrum: Pyrrolidine, 1-(1-oxo-5,8,11,14-eicosatetraenyl)-
Formula: C24H39NO
CAS: 56599-69-0
Molecular weight: 357
m/z	intensity
39	25
40	5
41	128
42	21
43	121
44	11
51	5
53	26
54	18
55	190
56	59
57	19
65	20
66	18
67	118
68	21
69	38
70	163
71	59
72	137
73	8
77	59
78	28
79	111
80	51
81	43
82	7
83	8
84	8
85	144
86	9
91	88
92	20
93	56
94	11
95	18
96	9
97	8
98	124
99	18
103	7
104	8
105	37
106	12
107	17
109	6
110	5
111	7
112	29
113	999
114	95
115	13
116	5
117	19
118	6
119	18
120	6
121	9
124	6
126	128
127	38
128	8
129	8
131	12
133	14
135	6
136	6
139	5
140	17
141	8
145	6
147	7
149	5
150	12
152	9
153	8
154	10
166	28
167	10
168	16
175	6
177	5
180	34
181	9
192	6
194	7
206	24
207	7
208	16
218	8
219	5
220	15
221	5
222	5
232	21
233	6
234	5
244	6
246	24
247	7
258	5
260	7
272	10
286	9
300	7
355	6
356	13
357	65
358	17
