Mass Spectrum: 2H-Pyran, 2,2'-[1,10-decanediylbis(oxy)]bis[tetrahydro-
Formula: C20H38O4
CAS: 56599-49-6
Molecular weight: 342
m/z	intensity
25	5
26	64
27	296
28	231
29	333
30	13
31	185
32	4
33	1
35	2
36	3
37	13
38	23
39	212
40	34
41	518
42	103
43	212
44	37
45	36
46	1
47	7
48	2
49	9
50	33
51	35
52	14
53	89
54	194
55	824
56	351
57	212
58	15
59	9
60	2
61	2
62	1
63	2
64	1
65	11
66	20
67	185
68	138
69	300
70	41
71	35
72	7
73	9
74	7
75	7
76	1
77	4
78	1
79	9
80	6
81	87
82	92
83	314
84	314
85	999
86	60
87	12
88	3
89	3
90	1
91	3
92	1
93	4
94	4
95	59
96	40
97	89
98	17
99	7
100	7
101	185
102	15
103	8
104	1
105	2
106	1
107	2
108	2
109	20
110	25
111	9
112	3
113	3
114	2
115	12
116	2
117	1
119	1
121	2
122	1
123	3
124	1
125	1
126	5
127	2
128	2
129	3
130	1
131	1
133	1
135	2
136	4
137	4
138	8
139	4
140	2
141	2
142	1
143	1
144	1
145	2
146	1
147	1
149	1
150	1
153	2
154	2
155	4
156	2
157	6
158	2
159	1
160	1
161	1
162	1
163	1
164	1
165	1
166	1
167	1
168	1
169	1
170	1
171	2
172	1
173	4
174	2
175	3
176	1
177	1
178	1
179	1
180	1
181	1
182	1
183	1
184	1
185	5
186	1
187	1
199	1
200	1
201	2
203	2
205	2
210	1
211	1
227	1
228	2
229	3
230	1
239	1
240	2
241	1
242	1
243	1
255	4
256	1
257	15
258	4
259	1
