Mass Spectrum: 9-Octadecynenitrile
Formula: C18H31N
CAS: 56599-96-3
Molecular weight: 261
m/z	intensity
25	2
26	18
27	303
28	107
29	504
30	28
31	57
32	5
36	2
37	2
38	7
39	240
40	59
41	999
42	142
43	495
44	32
45	34
46	2
47	3
49	1
50	9
51	46
52	102
53	245
54	789
55	823
56	132
57	196
58	12
59	21
60	3
61	10
62	2
63	14
64	7
65	102
66	93
67	941
68	573
69	352
70	68
71	31
72	5
73	8
74	12
75	5
76	3
77	142
78	43
79	284
80	142
81	970
82	450
83	196
84	30
85	13
86	2
87	1
88	5
89	4
90	2
91	107
92	23
93	132
94	83
95	578
96	254
97	156
98	26
99	3
100	2
101	3
102	4
103	7
104	6
105	38
106	68
107	98
108	59
109	176
110	147
111	31
112	11
113	6
114	11
115	4
116	4
117	13
118	9
119	23
120	161
121	78
122	102
123	98
124	93
125	13
126	3
127	2
128	2
129	3
130	4
131	24
132	12
133	17
134	455
135	142
136	50
137	40
138	19
139	3
140	1
141	1
142	1
143	1
144	2
145	15
146	9
147	13
148	352
149	98
150	20
151	11
152	51
153	7
154	1
155	1
156	1
157	1
158	1
159	5
160	7
161	7
162	171
163	73
164	25
165	5
166	5
167	1
168	1
169	1
170	1
171	1
172	1
173	2
174	3
175	5
176	83
177	156
178	26
179	4
180	2
181	1
182	1
183	1
186	1
187	1
188	1
189	1
190	38
191	9
192	8
193	2
194	1
203	1
204	49
205	11
206	3
207	6
208	1
218	28
219	8
220	4
231	14
232	5
233	1
246	3
247	1
260	6
261	10
262	2
