Mass Spectrum: Octadecanoic acid, (2-phenyl-1,3-dioxolan-4-yl)methyl ester, cis-
Formula: C28H46O4
CAS: 56599-88-3
Molecular weight: 446
m/z	intensity
25	7
26	20
27	83
28	66
29	169
30	8
31	25
32	7
35	5
36	8
37	8
38	8
39	55
40	14
41	308
42	86
43	500
44	45
45	57
46	4
47	4
48	4
49	5
50	23
51	58
52	10
53	27
54	27
55	294
56	69
57	308
58	26
59	22
60	45
61	19
62	5
63	7
64	4
65	11
66	8
67	57
68	33
69	155
70	45
71	117
72	17
73	98
74	26
75	11
76	19
77	235
78	27
79	41
80	10
81	58
82	32
83	98
84	69
85	66
86	13
87	29
88	7
89	7
90	5
91	48
92	22
93	16
94	10
95	57
96	20
97	73
98	89
99	29
100	17
101	17
102	10
103	7
104	13
105	999
106	86
107	23
108	10
109	27
110	10
111	39
112	30
113	22
114	5
115	22
116	47
117	23
118	10
119	14
120	10
121	14
122	26
123	41
124	16
125	16
126	14
127	13
128	7
129	48
130	7
131	7
132	4
133	5
134	7
135	20
136	10
137	10
138	7
139	10
140	8
141	14
142	5
143	10
144	4
145	4
146	4
147	5
148	7
149	19
150	7
151	7
152	5
153	8
154	8
155	10
156	5
157	10
158	10
159	5
160	5
161	5
162	10
163	10
164	5
165	55
166	8
167	7
168	8
169	10
170	5
171	16
172	4
173	4
174	4
175	4
176	5
177	5
178	16
179	125
180	17
181	8
182	7
183	5
184	4
185	17
186	4
187	5
188	4
189	4
190	4
191	4
192	4
193	4
195	5
196	7
197	39
198	7
199	7
200	4
201	4
203	5
204	5
205	5
206	4
207	13
208	5
209	7
210	10
211	10
212	4
213	7
214	4
216	2
217	4
218	5
219	5
220	25
221	33
222	7
223	5
224	4
225	5
226	4
227	10
228	4
229	4
233	16
234	5
235	4
238	17
239	14
240	7
241	10
242	5
245	4
246	4
247	5
248	5
249	5
253	7
254	4
255	5
256	7
257	4
264	7
265	7
266	14
267	119
268	27
269	7
270	5
275	7
276	2
277	2
278	2
280	5
281	7
282	4
283	14
284	13
285	7
286	4
289	7
290	4
291	4
292	2
293	2
295	5
296	5
297	7
298	4
299	4
301	4
302	2
303	4
308	4
309	4
310	4
311	7
312	4
313	4
314	2
322	4
323	2
324	2
325	5
326	4
327	38
328	10
329	4
330	2
331	2
332	2
339	7
340	17
341	13
342	2
345	5
346	4
360	2
361	2
362	2
369	7
370	4
382	7
383	7
390	5
391	2
404	4
422	5
423	4
446	23
447	17
448	7
