Mass Spectrum: Pyrrolidine, 1-(1-oxo-7,10-octadecadienyl)-
Formula: C22H39NO
CAS: 56599-76-9
Molecular weight: 333
m/z	intensity
39	41
40	9
41	200
42	49
43	270
44	24
49	18
51	9
52	5
53	38
54	45
55	330
56	100
57	40
58	8
65	22
66	17
67	180
68	48
69	84
70	390
71	120
72	270
73	14
75	7
77	48
78	15
79	90
80	46
81	100
82	23
83	29
84	18
85	120
86	12
91	46
92	10
93	44
94	16
95	48
96	17
97	19
98	220
99	37
100	10
105	15
106	6
107	17
108	9
109	15
110	12
111	11
112	36
113	999
114	78
115	8
117	5
119	8
121	14
122	6
123	9
124	14
125	7
126	510
127	120
128	11
129	5
131	5
133	6
135	18
136	8
137	7
138	12
139	12
140	59
141	31
142	5
149	11
150	8
152	33
153	13
154	84
155	17
163	6
164	7
165	6
166	31
167	11
168	45
169	10
178	10
179	8
180	47
181	17
182	33
183	7
192	9
193	5
194	130
195	27
196	24
197	6
202	5
206	14
207	7
208	65
209	17
210	8
220	27
221	8
222	14
223	5
224	7
232	7
234	45
235	10
236	14
237	5
238	6
246	7
248	38
249	11
250	27
251	29
252	7
262	28
263	10
264	5
276	15
277	6
278	6
290	17
291	5
292	5
304	14
305	5
318	7
329	5
330	7
331	15
332	15
333	280
334	71
335	12
