Mass Spectrum: 1,3-Dioxolane, 4,5-dimethyl-2-pentadecyl-
Formula: C20H40O2
CAS: 56599-61-2
Molecular weight: 312
m/z	intensity
26	2
27	14
28	30
29	36
30	3
31	7
32	7
39	9
40	3
41	64
42	17
43	119
44	7
45	20
46	1
47	1
53	5
54	9
55	139
56	23
57	45
58	4
59	3
60	1
65	1
66	2
67	13
68	13
69	27
70	10
71	21
72	9
73	158
74	7
75	1
77	1
79	3
80	2
81	9
82	11
83	17
84	5
85	11
86	1
87	1
91	1
93	1
94	1
95	7
96	5
97	11
98	4
99	3
100	2
101	999
102	56
103	7
104	1
109	4
110	3
111	5
112	3
113	1
114	3
115	2
116	3
117	1
123	3
124	2
125	3
126	2
127	7
128	2
129	1
137	2
138	1
139	1
140	1
141	3
142	1
151	1
152	1
153	1
154	1
155	1
165	1
166	1
167	1
168	1
169	1
183	1
184	1
194	2
195	1
196	1
197	1
205	2
211	1
222	7
223	4
224	3
225	1
239	1
240	1
253	3
254	1
255	1
268	3
269	1
270	1
311	14
312	4
313	2
