Mass Spectrum: 2-Heptadecanol, acetate
Formula: C19H38O2
CAS: 56599-51-0
Molecular weight: 298
m/z	intensity
38	7
39	49
40	16
41	318
42	87
43	999
44	40
45	32
50	7
51	9
52	7
53	29
54	49
55	363
56	172
57	309
58	76
59	40
60	10
61	87
62	7
63	9
64	5
65	10
66	10
67	76
68	60
69	281
70	161
71	170
72	14
73	9
74	5
75	5
76	5
77	12
78	10
79	16
80	10
81	52
82	101
83	290
84	134
85	103
86	14
87	400
88	21
89	7
91	14
92	7
93	9
94	7
95	36
96	74
97	300
98	89
99	32
100	7
101	7
102	43
103	7
104	5
105	9
106	7
107	7
108	9
109	20
110	40
111	174
112	74
113	23
114	5
115	12
116	5
117	7
118	5
119	9
120	5
121	5
122	5
123	10
124	25
125	98
126	49
127	16
128	9
129	7
130	10
131	9
132	5
133	9
134	5
135	14
136	5
137	7
138	21
139	47
140	38
141	18
142	10
143	5
144	5
145	9
146	5
147	7
148	5
149	5
150	5
151	7
152	18
153	32
154	29
155	10
156	5
165	5
166	14
167	25
168	27
169	9
170	5
179	5
180	10
181	20
182	18
183	7
184	5
193	5
194	5
195	5
196	12
197	14
198	27
199	7
200	5
207	12
208	7
209	10
210	34
211	10
212	7
221	3
222	3
223	5
224	5
225	3
236	7
238	149
239	36
240	7
254	12
255	10
256	5
266	5
267	5
