Mass Spectrum: Hexadecanoic acid, 1-(1-methylethyl)-1,2-ethanediyl ester
Formula: C37H72O4
CAS: 56599-93-0
Molecular weight: 580
m/z	intensity
25	4
26	19
27	99
28	62
29	180
30	9
31	20
32	2
36	7
37	5
38	8
39	63
40	19
41	391
42	126
43	707
44	81
45	40
46	2
47	2
48	1
49	2
50	6
51	10
52	4
53	25
54	47
55	427
56	126
57	662
58	51
59	20
60	44
61	13
62	3
63	4
64	5
65	7
66	8
67	85
68	157
69	999
70	184
71	342
72	28
73	108
74	27
75	7
76	2
77	9
78	7
79	21
80	13
81	81
82	41
83	162
84	144
85	184
86	32
87	43
88	8
89	5
90	1
91	10
92	4
93	13
94	11
95	81
96	32
97	103
98	166
99	42
100	18
101	13
102	8
103	5
104	3
105	8
106	4
107	9
108	7
109	42
110	14
111	42
112	55
113	21
114	7
115	20
116	6
117	5
118	3
119	13
120	3
121	9
122	5
123	18
124	9
125	20
126	17
127	10
128	166
129	121
130	13
131	13
132	3
133	6
134	3
135	13
136	4
137	9
138	5
139	10
140	10
141	130
142	16
143	8
144	2
145	3
146	5
147	28
148	5
149	10
150	2
151	4
152	4
153	5
154	12
155	11
156	4
157	4
158	3
159	2
160	1
161	1
162	3
163	3
164	1
165	3
166	3
167	6
168	9
169	9
170	4
171	3
172	2
173	1
175	2
176	2
177	4
178	2
179	3
180	1
181	7
182	10
183	12
184	4
185	5
186	2
187	1
188	4
189	2
190	1
191	4
192	2
193	5
194	5
195	4
196	6
197	19
198	6
199	3
200	1
201	1
202	2
203	2
204	1
205	3
206	1
207	26
208	7
209	5
210	3
211	4
212	3
213	4
214	1
215	1
216	3
217	2
218	1
219	5
220	3
221	19
222	5
223	3
224	1
225	3
226	2
227	2
228	1
229	2
230	1
231	3
232	1
233	1
234	2
235	1
236	4
237	9
238	37
239	527
240	94
241	10
242	1
243	2
244	2
245	1
249	2
250	1
251	1
252	15
253	9
254	3
255	5
256	9
257	33
258	7
259	1
260	1
261	1
262	1
263	1
264	1
265	2
266	1
267	4
268	2
269	2
270	8
271	3
272	1
279	1
280	1
281	16
282	6
283	3
284	1
285	1
286	1
292	1
293	1
294	6
295	3
296	2
297	2
298	2
299	1
308	1
309	2
310	1
311	2
312	7
313	5
314	1
315	1
322	2
323	6
324	76
325	193
326	47
327	8
328	2
331	1
338	1
339	1
340	2
341	3
342	3
343	28
344	7
345	1
351	1
352	1
353	1
354	1
355	7
356	2
357	2
358	1
366	3
367	1
369	3
370	1
371	1
384	9
385	3
386	1
393	1
394	1
395	1
396	1
397	1
399	1
400	1
401	1
415	2
416	1
417	1
429	4
430	2
431	2
432	1
502	1
508	5
509	3
510	1
537	3
538	1
580	3
581	1
582	1
