Mass Spectrum: 1,3-Dioxane, 4,6-dimethyl-2-pentadecyl-
Formula: C21H42O2
CAS: 56599-77-0
Molecular weight: 326
m/z	intensity
27	7
28	22
29	19
30	2
31	3
32	7
37	2
38	2
39	11
40	4
41	72
42	33
43	125
44	14
45	76
46	4
47	1
50	2
51	2
52	1
53	7
54	10
55	68
56	22
57	78
58	7
59	4
60	2
61	2
62	1
63	2
65	3
66	3
67	26
68	16
69	291
70	32
71	40
72	5
73	14
74	2
75	2
76	2
77	3
78	3
79	5
80	3
81	22
82	15
83	42
84	13
85	22
86	25
87	23
88	7
89	3
91	3
92	2
93	3
94	3
95	21
96	10
97	33
98	9
99	6
100	3
101	4
102	2
103	7
104	2
105	7
106	2
107	3
108	3
109	11
110	5
111	15
112	7
113	4
114	3
115	999
116	69
117	7
118	3
119	3
120	1
121	3
122	2
123	6
124	3
125	11
126	3
127	3
128	7
129	3
130	32
131	7
132	2
133	2
134	1
135	3
136	2
137	3
138	3
139	5
140	2
141	13
142	3
143	3
144	2
145	2
147	1
149	10
150	3
151	3
152	2
153	3
154	2
155	3
156	2
157	2
158	1
159	1
160	2
161	1
162	1
163	2
164	1
165	3
166	2
167	3
168	2
169	3
170	2
171	1
175	1
176	1
178	1
179	1
180	2
181	1
182	1
183	1
185	2
187	1
188	2
189	2
190	1
191	2
192	1
193	2
194	2
195	2
196	1
197	2
198	1
199	1
202	2
204	2
205	1
206	1
207	1
208	1
209	1
210	4
211	3
212	1
217	3
218	3
219	8
220	7
221	3
222	3
223	7
224	2
225	2
226	1
238	6
239	9
240	3
241	22
242	6
243	1
257	3
258	1
259	1
279	1
280	1
281	1
282	1
283	1
298	3
299	1
308	3
309	1
311	1
325	27
326	8
327	3
