Mass Spectrum: 8-Heptadecyne, 1-bromo-
Formula: C17H31Br
CAS: 56599-94-1
Molecular weight: 314
m/z	intensity
25	1
26	13
27	343
28	105
29	533
30	12
31	5
32	4
35	1
36	1
37	2
38	5
39	228
40	56
41	999
42	126
43	543
44	24
45	4
46	1
47	2
48	2
49	1
50	8
51	36
52	87
53	221
54	926
55	978
56	129
57	224
58	10
59	9
60	2
61	2
62	1
63	9
64	4
65	77
66	73
67	978
68	319
69	375
70	52
71	27
72	3
73	4
74	1
75	4
76	1
77	98
78	29
79	228
80	94
81	915
82	501
83	221
84	18
85	8
86	1
87	1
88	1
89	2
90	1
91	63
92	11
93	91
94	34
95	578
96	27
97	119
98	11
99	1
100	1
101	1
102	1
103	3
104	1
105	12
106	3
107	39
108	13
109	189
110	56
111	20
112	4
113	2
114	4
115	2
116	1
117	2
118	1
119	4
120	1
121	30
122	7
123	87
124	63
125	9
126	1
127	1
128	1
129	1
130	1
131	1
132	1
133	3
134	1
135	14
136	8
137	77
138	19
139	2
140	1
141	1
142	1
143	1
144	1
145	1
146	1
147	3
148	2
149	4
150	3
151	11
152	7
153	1
155	1
156	1
157	1
158	1
159	1
160	3
161	5
162	4
163	6
164	2
165	3
166	2
167	1
173	2
174	3
175	4
176	4
177	4
178	1
179	4
180	1
181	1
187	8
188	14
189	9
190	13
191	2
192	1
193	4
194	1
195	1
200	1
201	13
202	5
203	13
204	4
205	1
206	1
207	3
208	1
209	1
215	4
216	3
217	5
218	3
219	1
220	1
221	1
229	1
230	1
231	1
232	1
233	1
234	1
235	1
236	1
243	4
244	1
245	3
246	1
257	5
258	3
259	6
260	3
261	1
271	1
272	1
273	1
274	1
281	1
282	1
285	1
286	1
287	1
314	1
315	1
316	1
317	1
