Mass Spectrum: 1,3-Dioxolane, 4-(1-methylethyl)-2-pentadecyl-
Formula: C21H42O2
CAS: 56599-35-0
Molecular weight: 326
m/z	intensity
27	3
28	2
29	7
31	3
39	3
40	1
41	33
42	8
43	38
44	3
45	14
53	2
54	4
55	27
56	12
57	28
58	4
59	1
65	1
66	2
67	9
68	8
69	300
70	21
71	18
72	2
73	3
74	1
79	2
80	2
81	9
82	10
83	16
84	4
85	16
86	6
87	10
88	2
89	1
91	1
93	1
94	1
95	9
96	7
97	13
98	3
99	3
100	1
101	1
102	1
103	1
107	1
109	4
110	3
111	7
112	2
113	2
114	1
115	999
116	76
117	7
118	1
123	3
124	2
125	3
126	1
127	1
128	2
129	1
130	3
131	1
135	1
137	2
138	1
139	2
140	1
141	4
142	1
149	1
151	1
152	1
153	1
154	1
155	2
165	1
166	1
167	1
179	1
180	1
181	1
183	1
193	1
194	1
195	1
196	1
197	1
198	1
211	1
219	1
221	1
222	6
223	5
224	1
225	1
239	2
240	1
247	1
248	1
253	2
254	2
255	1
256	1
257	1
265	3
266	1
267	1
281	1
282	1
283	10
284	3
285	1
311	1
325	15
326	5
327	1
