Mass Spectrum: 1,3-Dioxolane, 2,2-dimethyl-4-[[(1-methylhexadecyl)oxy]methyl]-
Formula: C23H46O3
CAS: 56599-62-3
Molecular weight: 370
m/z	intensity
39	22
40	230
41	120
42	46
43	310
44	90
45	80
51	5
53	9
54	14
55	120
56	44
57	280
58	90
59	120
60	8
61	29
65	5
67	19
68	14
69	70
70	28
71	110
72	47
73	50
74	16
75	19
77	10
79	12
81	15
82	15
83	50
84	16
85	70
86	14
87	19
88	9
89	16
91	7
93	5
95	13
96	12
97	35
98	16
99	45
100	21
101	999
102	60
103	20
104	5
105	10
109	6
110	6
111	15
112	9
113	10
114	10
115	20
116	26
117	60
118	8
119	8
123	6
125	7
127	7
129	5
131	7
133	11
141	5
147	8
149	5
159	60
160	7
205	14
207	6
220	5
236	5
238	6
239	6
255	13
327	9
341	6
355	110
356	28
357	5
370	5
