Mass Spectrum: 9-Octadecenoic acid, (2-phenyl-1,3-dioxolan-4-yl)methyl ester, trans-
Formula: C28H44O4
CAS: 56599-46-3
Molecular weight: 444
m/z	intensity
28	314
29	255
30	18
31	66
32	7
33	11
36	11
37	7
38	11
39	59
40	51
41	137
42	51
43	518
44	170
45	296
46	14
47	18
50	25
51	74
52	18
53	22
54	29
55	148
56	44
57	188
58	33
59	22
60	22
61	111
62	11
63	25
64	11
65	81
66	14
67	44
68	25
69	77
70	37
71	85
72	18
73	370
74	40
75	25
76	18
77	181
78	37
79	85
80	14
81	40
82	25
83	62
84	33
85	55
86	11
87	33
88	14
89	37
90	22
91	999
92	192
93	29
94	11
95	48
96	29
97	48
98	33
99	25
100	25
101	22
102	7
103	33
104	18
105	396
106	66
107	262
108	44
109	25
110	14
111	25
112	18
113	22
114	7
115	11
116	14
117	37
118	11
119	14
120	22
121	25
122	29
123	62
124	14
125	14
126	11
127	18
128	7
129	33
130	7
131	7
132	7
133	14
134	14
135	96
136	22
137	14
138	11
139	11
140	7
141	18
142	7
143	7
144	7
145	7
146	11
147	7
148	3
149	125
150	29
151	22
152	11
153	7
154	7
155	14
156	3
157	7
158	7
159	7
160	7
161	7
162	18
163	48
164	40
165	22
166	11
167	11
168	11
169	11
170	3
171	11
172	3
173	3
175	3
176	3
177	11
178	7
179	33
180	14
181	29
182	29
183	11
185	18
186	3
187	3
188	3
189	3
190	3
191	7
192	7
193	7
194	7
195	7
196	7
197	11
198	7
199	7
201	3
202	3
203	3
205	7
206	7
207	14
208	7
209	7
210	7
211	7
212	3
213	7
214	3
215	3
219	7
220	7
221	7
222	7
223	11
224	7
225	7
226	3
227	7
228	7
229	3
236	3
237	3
238	7
239	7
241	7
242	7
251	3
252	3
253	7
254	3
255	3
262	7
263	3
264	18
265	11
266	7
267	3
268	3
269	11
270	11
271	3
282	3
283	3
284	3
338	11
339	3
367	11
368	3
