Mass Spectrum: Cholest-4-en-3-ol, (3.alpha.)-
Formula: C27H46O
CAS: 566-90-5
Molecular weight: 386
m/z	intensity
41	752
42	147
43	999
44	14
45	47
55	949
56	179
57	852
58	82
59	38
67	417
68	88
69	623
70	147
71	623
72	82
79	405
80	120
81	829
82	241
83	420
84	105
85	297
91	447
92	152
93	420
94	176
95	870
96	182
97	276
98	85
105	629
106	332
107	564
108	264
109	491
110	147
119	379
120	200
121	352
122	200
123	270
124	535
125	141
126	76
131	297
132	117
133	273
134	202
135	264
136	155
143	205
144	100
145	264
146	147
147	491
148	205
149	282
150	73
159	264
160	155
161	264
162	141
163	164
164	61
173	158
174	88
175	155
176	88
202	179
203	82
204	58
213	161
214	88
215	167
216	88
229	302
230	82
247	182
248	61
249	38
254	167
255	61
256	61
259	152
260	202
261	85
262	38
271	88
272	64
273	120
274	88
275	64
299	88
300	52
301	100
302	64
303	44
314	123
315	185
316	388
317	144
318	50
328	147
329	88
330	41
342	164
343	67
344	47
353	167
354	64
355	44
368	447
369	185
370	88
384	250
385	108
386	579
387	182
388	61
