Mass Spectrum: 17-(1,5-Dimethylhexyl)-10,13-dimethylhexadecahydrocyclopenta[a]phenanthren-4-one
Formula: C27H46O
CAS: 566-51-8
Molecular weight: 386
m/z	intensity
33	1
34	1
35	0
36	1
37	2
38	2
39	12
40	5
41	211
42	45
43	447
44	14
45	4
46	2
47	3
48	7
49	0
50	1
51	3
52	1
53	27
54	10
55	380
56	40
57	235
58	11
59	2
60	2
61	3
62	2
63	3
64	3
65	7
66	8
67	180
68	89
69	197
70	27
71	105
72	6
73	2
74	3
75	2
76	4
77	32
78	9
79	146
80	35
81	260
82	58
83	89
84	10
85	18
86	1
87	2
88	6
89	7
90	3
91	93
92	22
93	182
94	56
95	236
96	43
97	64
98	37
99	8
100	1
101	2
102	2
103	3
104	5
105	122
106	37
107	154
108	74
109	119
110	98
111	999
112	80
113	7
114	2
115	4
116	3
117	23
118	24
119	85
120	40
121	137
122	75
123	85
124	35
125	30
126	5
127	3
128	2
129	9
130	6
131	44
132	27
133	103
134	65
135	92
136	63
137	64
138	19
139	12
140	4
141	3
142	3
143	17
144	7
145	63
146	20
147	85
148	44
149	68
150	20
151	21
152	14
153	3
154	2
155	2
156	2
157	19
158	15
159	76
160	24
161	83
162	26
163	43
164	25
165	23
166	3
167	2
168	1
169	2
170	2
171	18
172	15
173	29
174	13
175	54
176	28
177	25
178	18
179	9
180	2
181	1
182	2
183	3
184	2
185	16
186	6
187	17
188	6
189	28
190	13
191	11
192	5
193	5
194	2
195	8
197	13
198	31
199	36
200	9
201	19
202	7
203	50
204	23
205	13
206	3
207	3
208	7
209	2
211	10
212	6
213	115
214	36
215	59
216	18
217	96
218	27
219	18
220	4
221	3
223	1
225	2
226	3
227	11
228	25
229	16
230	15
231	539
232	326
233	101
234	14
235	1
236	1
238	2
239	2
240	1
241	4
242	2
243	4
244	2
245	21
246	188
247	64
248	9
249	1
250	1
253	1
255	22
256	5
257	5
258	3
259	6
260	7
261	14
262	19
263	5
264	1
266	1
267	1
269	1
271	5
272	6
273	29
274	15
275	10
276	68
277	14
278	1
281	1
282	1
283	6
284	1
285	2
286	1
287	4
288	50
289	20
290	2
297	1
299	1
300	1
301	10
302	4
303	1
304	1
311	0
313	2
314	2
315	22
316	9
317	2
321	0
323	1
324	1
325	1
328	2
329	1
330	3
331	4
332	2
334	1
335	1
336	3
337	2
340	1
343	7
344	2
351	10
353	42
354	11
355	4
357	15
358	12
359	3
363	1
364	1
367	5
368	44
369	16
371	134
372	38
373	5
386	735
387	219
388	32
