Mass Spectrum: 1,3-Dioxolane, 2,2-dimethyl-4-[[(2-methylhexadecyl)oxy]methyl]-
Formula: C23H46O3
CAS: 56600-20-5
Molecular weight: 370
m/z	intensity
25	1
26	6
27	31
28	47
29	79
30	3
31	17
32	10
35	1
36	2
37	3
38	3
39	34
40	9
41	268
42	68
43	549
44	23
45	19
46	1
47	1
49	1
50	2
51	3
52	1
53	17
54	19
55	276
56	132
57	500
58	170
59	113
60	5
61	25
62	1
63	1
64	1
65	5
66	4
67	45
68	23
69	166
70	56
71	250
72	56
73	128
74	17
75	14
76	2
77	7
78	3
79	10
80	4
81	35
82	31
83	117
84	26
85	147
86	29
87	90
88	6
89	3
90	1
91	6
92	1
93	4
94	3
95	26
96	30
97	71
98	18
99	75
100	18
101	999
102	64
103	9
104	3
105	4
106	1
107	3
108	2
109	13
110	12
111	38
112	14
113	37
114	7
115	11
116	11
117	31
118	5
119	3
120	1
121	3
122	2
123	8
124	7
125	17
126	6
127	31
128	6
129	4
130	1
131	7
132	6
133	21
134	2
141	24
142	4
146	13
147	3
155	20
156	4
168	3
169	15
170	3
183	10
184	2
237	3
238	10
239	10
240	2
353	1
355	219
356	56
357	8
369	1
370	6
371	2
372	1
