Mass Spectrum: Pyrrolidine, 1-(1-oxo-8,11,14-eicosatrienyl)-
Formula: C24H41NO
CAS: 56600-10-3
Molecular weight: 359
m/z	intensity
39	68
40	39
41	310
42	85
43	350
44	100
45	8
46	7
47	18
48	13
49	85
50	11
51	35
52	14
53	50
54	61
55	470
56	110
57	65
58	9
59	8
60	7
61	5
63	8
64	9
65	39
66	36
67	370
68	77
69	140
70	620
71	140
72	370
73	24
74	5
75	19
76	7
77	91
78	43
79	230
80	140
81	180
82	33
83	37
84	82
85	150
86	47
87	6
88	12
89	8
91	120
92	32
93	130
94	41
95	90
96	33
97	30
98	250
99	43
100	14
101	5
103	9
104	13
105	54
106	28
107	47
108	19
109	31
110	23
111	15
112	44
113	999
114	75
115	22
116	8
117	20
118	11
119	27
120	14
121	30
122	15
123	15
124	15
125	10
126	600
127	120
128	19
129	8
130	7
131	13
132	5
133	19
134	12
135	30
136	16
137	12
138	13
139	14
140	75
141	47
142	32
143	9
144	5
145	9
146	5
147	16
148	9
149	21
150	30
151	14
152	26
153	18
154	67
155	26
156	10
157	5
158	5
159	8
160	5
161	10
162	7
163	10
164	10
165	8
166	28
167	13
168	120
169	24
170	6
171	5
172	5
173	6
174	5
175	14
176	9
177	13
178	12
179	8
180	33
181	13
182	45
183	14
184	5
185	7
189	8
190	9
191	11
192	10
193	8
194	32
195	13
196	26
197	10
202	6
203	7
204	8
205	12
206	19
207	9
208	72
209	24
210	34
211	9
218	7
220	22
221	9
222	63
223	28
224	19
225	6
232	13
234	32
235	11
236	28
237	9
238	8
246	21
247	9
248	86
249	21
250	19
251	7
252	7
253	7
260	35
261	19
262	35
263	12
264	12
265	6
266	6
274	41
275	14
276	16
277	8
278	9
279	8
280	5
286	13
287	7
288	32
289	13
290	11
291	8
292	8
300	6
302	24
303	8
304	9
305	6
316	17
317	9
318	6
330	13
331	7
344	7
355	8
356	9
357	22
358	62
359	380
360	98
361	19
362	5
