Mass Spectrum: Pyrrolidine, 1-(1-oxo-4,7-octadecadienyl)-
Formula: C22H39NO
CAS: 56600-14-7
Molecular weight: 333
m/z	intensity
39	21
40	9
41	110
42	26
43	140
44	15
53	20
54	19
55	180
56	59
57	32
65	11
66	10
67	64
68	22
69	37
70	160
71	61
72	90
73	5
77	32
78	11
79	58
80	24
81	36
82	10
83	19
84	10
85	110
86	7
91	25
92	8
93	31
94	9
95	19
96	13
97	13
98	190
99	17
100	5
105	7
107	12
109	8
110	10
111	12
112	33
113	999
114	85
115	7
119	5
121	7
122	5
123	5
124	13
125	5
126	33
127	13
135	5
136	6
137	5
138	13
139	23
140	7
141	6
150	16
151	7
152	110
153	78
154	26
155	6
164	7
166	43
167	11
168	5
178	24
179	6
192	35
206	37
207	13
220	49
221	12
234	12
248	8
262	8
276	8
290	7
304	6
318	5
331	5
332	9
333	160
334	37
335	7
