Mass Spectrum: Pyrrolidine, 1-(1-oxo-6,9,12-octadecatrienyl)-
Formula: C22H37NO
CAS: 56600-02-3
Molecular weight: 331
m/z	intensity
39	54
40	47
41	240
42	44
43	190
44	42
45	9
49	12
50	9
51	21
52	13
53	41
54	32
55	330
56	100
57	40
58	14
64	6
65	30
66	35
67	210
68	48
69	97
70	350
71	110
72	290
73	18
77	86
78	35
79	160
80	75
81	98
82	26
83	27
84	21
85	110
86	14
87	8
88	8
89	10
91	120
92	34
93	74
94	29
95	54
96	22
97	19
98	250
99	61
100	18
103	12
104	12
105	51
106	19
107	34
108	15
109	18
110	34
111	35
112	57
113	999
114	88
115	21
116	25
117	24
118	13
119	29
120	14
121	25
122	13
123	11
124	20
125	13
126	410
127	160
128	20
129	17
130	14
131	22
132	11
133	18
134	14
135	20
136	17
137	15
138	14
139	17
140	79
141	26
142	10
143	11
144	10
145	12
146	10
147	14
148	10
149	24
150	24
151	13
152	29
153	15
154	39
155	16
156	5
161	16
162	11
163	15
164	14
165	12
166	34
167	15
168	32
169	11
175	10
176	14
177	12
178	13
179	10
180	65
181	18
182	33
183	11
189	10
190	9
191	9
192	15
193	9
194	87
195	23
196	18
202	6
203	12
204	16
206	25
207	14
208	22
209	10
210	12
216	6
217	6
218	21
219	13
220	88
221	25
222	19
223	11
224	11
232	26
233	16
234	31
235	14
236	11
237	9
238	9
246	38
247	14
248	15
249	11
250	11
251	10
252	10
258	11
260	34
261	13
262	13
274	22
275	9
276	9
277	9
288	18
289	6
290	6
302	12
303	10
316	12
327	12
328	15
329	26
330	42
331	230
332	54
333	18
334	6
