Mass Spectrum: Pyrrolidine, 1-(1-oxo-4-decenyl)-
Formula: C14H25NO
CAS: 56600-09-0
Molecular weight: 223
m/z	intensity
39	112
40	26
41	344
42	105
43	246
44	40
51	12
52	10
53	74
54	98
55	572
56	239
57	42
58	18
59	5
64	5
65	23
66	16
67	119
68	70
69	137
70	481
71	170
72	147
73	8
75	5
77	20
78	6
79	27
80	10
81	49
82	20
83	49
84	35
85	207
86	12
91	79
93	7
94	6
95	36
96	28
97	27
98	747
99	60
100	10
107	5
108	7
109	10
110	27
111	28
112	133
113	999
114	84
115	7
116	5
122	5
123	5
124	35
125	14
126	70
127	20
135	5
136	7
137	5
138	56
139	60
140	11
141	11
150	7
151	5
152	260
153	112
154	15
155	6
164	79
165	8
166	910
167	158
168	17
178	5
180	81
181	56
182	8
194	63
195	11
208	33
209	5
222	31
223	310
224	49
225	5
