Mass Spectrum: Pyrrolidine, 1-(1-oxo-5,8-octadecadienyl)-
Formula: C22H39NO
CAS: 56600-16-9
Molecular weight: 333
m/z	intensity
39	14
41	67
42	15
43	110
44	9
53	11
54	12
55	110
56	32
57	21
65	9
66	7
67	46
68	13
69	25
70	110
71	38
72	66
77	17
78	6
79	38
80	18
81	22
82	6
83	8
84	7
85	100
86	6
91	17
93	14
94	5
95	12
96	7
97	8
98	62
99	12
105	5
107	8
109	5
111	5
112	21
113	999
114	71
115	7
121	6
126	100
127	26
136	5
140	11
152	7
153	5
154	6
166	24
167	9
168	11
178	6
180	12
192	5
206	8
220	17
234	9
262	5
333	88
334	22
