Mass Spectrum: Pyrrolidine, 1-(1-oxo-7-octadecenyl)-
Formula: C22H41NO
CAS: 56600-01-2
Molecular weight: 335
m/z	intensity
39	34
40	8
41	190
42	47
43	290
44	18
45	5
49	8
51	53
52	24
53	47
54	34
55	90
56	75
57	7
58	5
65	7
66	7
67	84
68	36
69	95
70	270
71	150
72	190
73	10
77	10
78	6
79	23
80	9
81	44
82	15
83	39
84	20
85	86
86	9
87	5
91	9
93	11
94	5
95	31
96	15
97	22
98	200
99	35
100	12
107	5
109	12
110	12
111	11
112	32
113	999
114	83
115	9
116	8
121	5
123	6
124	11
125	7
126	580
127	140
128	12
135	6
137	6
138	8
139	10
140	55
141	43
142	6
152	31
153	10
154	97
155	24
156	5
166	25
167	9
168	52
169	13
178	5
180	64
181	16
182	25
183	6
194	72
195	17
196	9
208	150
209	29
210	7
222	66
223	15
224	5
236	30
237	8
238	8
239	6
250	21
251	7
252	11
253	7
264	21
265	9
266	6
278	18
279	6
280	12
281	5
292	26
293	9
294	8
306	15
307	6
320	9
321	5
333	6
334	20
335	170
336	42
337	9
