Mass Spectrum: Pyrrolidine, 1-(1-oxo-6,9-octadecadienyl)-
Formula: C22H39NO
CAS: 56600-18-1
Molecular weight: 333
m/z	intensity
39	35
40	9
41	200
42	41
43	210
44	23
49	14
51	9
52	5
53	36
54	33
55	310
56	86
57	56
58	7
59	5
65	18
66	15
67	140
68	42
69	70
70	320
71	120
72	270
73	14
75	5
77	43
78	18
79	100
80	39
81	73
82	20
83	24
84	20
85	110
86	9
91	43
92	11
93	41
94	13
95	34
96	19
97	19
98	200
99	59
100	11
105	17
106	7
107	20
108	10
109	16
110	14
111	11
112	41
113	999
114	83
115	8
117	7
119	9
120	5
121	18
122	6
123	9
124	13
125	6
126	500
127	190
128	18
131	6
133	6
135	19
136	11
137	7
138	12
139	12
140	78
141	21
142	5
145	6
149	8
150	9
152	26
153	11
154	38
155	9
163	6
164	7
165	5
166	39
167	15
168	32
169	7
178	11
179	7
180	100
181	26
182	26
183	6
192	10
193	7
194	65
195	15
196	8
206	24
207	9
208	11
209	5
218	8
220	38
221	11
222	9
232	7
234	47
235	12
236	8
248	24
249	8
250	8
251	5
262	15
263	7
264	7
276	12
290	14
291	5
292	5
303	6
304	12
305	6
318	5
330	5
331	11
332	13
333	270
334	70
335	12
