Mass Spectrum: Propanedinitrile, cyclopentylidene-
Formula: C8H8N2
CAS: 5660-83-3
Molecular weight: 132
m/z	intensity
24	5
25	2
26	42
27	131
28	39
29	10
30	1
31	0
33	0
34	0
35	1
36	1
37	32
38	37
39	188
40	29
41	999
42	43
43	1
44	2
45	0
46	0
48	13
49	8
50	49
51	55
52	43
53	25
54	27
55	3
56	0
57	0
58	0
59	0
60	0
61	6
62	13
63	29
64	37
65	42
66	28
67	116
68	7
71	0
72	0
73	11
74	5
75	30
76	43
77	73
78	44
79	12
80	8
81	2
82	0
85	1
86	0
87	1
88	4
89	4
90	8
91	9
92	15
93	1
99	1
100	1
101	6
102	7
103	12
104	67
105	48
106	25
107	1
115	2
116	0
117	2
128	5
129	2
130	5
131	53
132	76
133	6
