Mass Spectrum: 1,3-Dioxolane, 4,4,5,5-tetramethyl-
Formula: C7H14O2
CAS: 5660-63-9
Molecular weight: 130
m/z	intensity
41	220
42	460
43	240
44	10
55	50
57	210
58	10
59	40
69	20
72	999
73	30
83	50
84	10
85	190
86	10
101	30
115	60
129	10
