Mass Spectrum: 1H-Azonine, octahydro-
Formula: C8H17N
CAS: 5661-71-2
Molecular weight: 127
m/z	intensity
12	3
14	13
15	48
16	36
26	21
27	221
29	225
30	999
31	27
37	5
38	11
39	207
40	44
41	454
42	267
43	880
45	66
46	4
49	13
50	7
51	18
52	12
53	52
54	68
55	244
56	805
57	332
58	50
59	19
60	4
63	5
65	10
66	9
67	61
68	87
69	75
70	565
71	113
72	136
73	13
77	14
78	5
79	9
80	10
81	30
82	111
83	32
84	245
85	36
86	190
87	12
91	5
93	5
94	6
95	13
96	104
97	38
98	155
99	19
110	14
112	59
113	7
124	28
125	16
126	66
127	313
128	30
