Mass Spectrum: Bicyclo[2.2.1]heptane-2,3-diol, 1,7,7-trimethyl-, (exo,exo)-
Formula: C10H18O2
CAS: 56614-57-4
Molecular weight: 170
m/z	intensity
39	220
40	60
41	580
42	60
43	680
44	120
45	30
51	20
53	120
54	10
55	380
56	50
57	180
58	80
59	120
60	280
65	30
67	240
68	40
69	420
70	180
71	130
72	70
77	60
79	120
80	100
81	400
82	200
83	220
84	280
85	160
86	10
87	40
91	60
93	70
94	210
95	999
96	120
97	80
98	10
99	110
100	30
105	10
107	40
108	40
109	210
110	60
111	300
112	60
119	30
121	120
122	10
123	120
124	20
134	20
137	100
138	10
139	30
152	130
153	10
155	20
170	2
