Mass Spectrum: Benzoic acid, 4-[(2,2-dimethyl-1-oxopropyl)amino]-
Formula: C12H15NO3
CAS: 56619-97-7
Molecular weight: 221
m/z	intensity
40	20
41	170
42	20
43	10
44	120
50	10
51	10
52	10
53	10
55	20
56	20
57	999
58	40
63	20
64	20
65	80
66	10
69	10
70	10
75	10
76	10
77	10
78	10
80	10
81	10
85	250
86	10
89	10
90	20
91	80
92	60
93	20
107	10
108	30
109	10
114	10
118	50
119	30
120	180
121	30
136	30
137	260
138	30
147	30
163	20
164	30
165	10
178	20
204	10
221	320
222	40
