Mass Spectrum: Oxacyclotriacontane-4,13,19,28-tetrone
Formula: C29H50O5
CAS: 56613-38-8
Molecular weight: 478
m/z	intensity
26	8
27	88
28	9
29	137
30	14
31	20
39	28
40	46
41	362
42	94
43	495
44	15
45	24
49	6
53	43
54	53
55	999
56	126
57	236
58	100
59	27
65	4
66	7
67	222
68	54
69	368
70	139
71	168
72	55
73	91
77	13
78	5
79	107
80	84
81	318
82	50
83	364
84	137
85	84
86	13
87	11
88	32
89	25
91	32
92	7
93	123
94	56
95	322
96	83
97	223
98	125
99	80
100	11
101	54
102	8
104	9
105	25
106	15
107	125
108	33
109	138
110	40
111	143
112	48
113	52
114	18
115	13
117	14
118	8
119	35
120	21
121	116
122	32
123	93
124	36
125	143
126	30
127	17
128	31
129	9
131	21
132	18
133	52
134	52
135	88
136	28
137	51
138	60
139	61
140	39
141	55
142	11
143	18
145	17
146	9
147	34
148	17
149	72
150	33
151	33
152	55
153	92
154	22
155	21
156	42
157	16
158	19
159	20
160	13
161	17
162	18
163	21
164	13
165	21
166	16
167	82
168	24
169	41
170	18
171	86
172	9
173	9
174	9
175	18
176	13
177	25
178	15
179	15
180	8
181	20
182	9
183	79
184	14
185	24
186	9
187	15
188	5
189	9
191	9
192	19
193	16
194	14
195	137
196	19
197	55
198	18
199	10
201	8
203	9
204	6
205	9
207	9
208	7
209	13
210	34
211	87
212	21
213	17
214	6
217	7
219	6
220	9
221	21
222	8
223	53
224	13
225	19
226	9
227	12
228	26
229	24
230	8
231	8
232	9
233	9
235	9
236	16
237	22
238	15
239	58
240	15
241	19
245	6
246	8
247	31
248	9
249	19
250	34
251	157
252	33
253	23
254	11
255	6
263	20
264	9
265	40
266	9
267	32
268	19
269	89
270	19
275	14
276	5
277	8
278	7
279	10
280	10
281	18
282	8
283	9
289	8
290	24
291	19
292	9
293	17
303	9
305	9
306	9
307	9
308	19
309	20
310	8
319	7
320	17
321	26
322	8
323	8
325	8
327	9
337	7
339	5
345	18
347	6
363	12
373	8
377	6
378	9
379	6
389	10
390	14
391	22
392	5
393	10
403	6
407	24
408	7
415	6
421	14
422	5
431	6
432	9
442	34
443	11
460	220
461	72
462	15
478	56
479	19
