Mass Spectrum: 1-Cyclohexene-1-carboxaldehyde, 5,5-dimethyl-3-oxo-
Formula: C9H12O2
CAS: 56621-35-3
Molecular weight: 152
m/z	intensity
26	13
27	133
28	30
29	123
30	4
31	5
37	10
38	44
39	403
40	125
41	271
42	31
43	54
44	9
45	4
47	2
48	6
49	3
50	33
51	75
52	40
53	169
54	26
55	127
56	120
57	33
58	2
59	2
60	4
61	5
62	11
63	33
64	9
65	51
66	34
67	382
68	936
69	73
70	26
71	5
72	1
73	4
74	7
75	6
76	3
77	105
78	24
79	124
80	32
81	227
82	30
83	45
84	22
85	5
86	2
87	3
89	3
90	2
91	45
92	12
93	31
94	15
95	115
96	999
97	89
98	13
99	3
100	2
103	3
104	2
105	11
106	17
107	42
108	16
109	220
110	64
111	13
112	24
113	3
119	5
121	6
122	3
123	43
124	94
125	14
126	11
127	2
128	4
129	2
131	2
133	2
134	10
135	4
136	3
137	122
138	12
139	3
140	3
141	3
149	4
150	2
151	5
152	611
153	78
154	8
155	2
