Mass Spectrum: Pyrrolidine, 1-(1-oxo-9,15-octadecadienyl)-
Formula: C22H39NO
CAS: 56630-65-0
Molecular weight: 333
m/z	intensity
37	32
38	54
39	310
40	95
41	990
42	340
43	860
44	49
45	9
47	11
48	10
49	22
50	18
51	28
52	26
53	110
54	150
55	740
56	170
57	56
58	17
59	8
63	10
64	10
65	29
66	24
67	260
68	140
69	230
70	610
71	260
72	210
73	16
74	9
75	10
77	26
78	15
79	70
80	57
81	150
82	89
83	53
84	51
85	160
86	14
91	20
92	11
93	33
94	41
95	77
96	33
97	22
98	210
99	41
100	13
101	8
104	9
105	12
106	9
107	16
108	13
109	22
110	16
111	13
112	46
113	999
114	75
115	11
116	7
117	10
118	7
119	8
120	8
121	15
122	11
123	15
124	15
125	14
126	610
127	120
128	15
133	8
134	8
135	12
136	9
137	11
138	9
139	10
140	85
141	26
142	8
149	10
150	9
151	13
152	16
153	9
154	32
155	15
156	7
162	7
163	7
164	10
165	9
166	12
167	8
168	69
169	21
170	8
175	6
176	6
177	6
178	8
179	7
180	11
181	9
182	100
183	25
184	8
194	15
195	9
196	26
197	11
206	7
207	7
208	22
209	9
210	18
211	9
218	7
220	7
222	34
223	15
224	13
225	8
234	8
235	8
236	69
237	29
238	14
239	8
248	8
250	81
251	32
252	14
253	7
261	6
262	8
263	8
264	77
265	28
266	11
267	7
276	10
277	9
278	15
279	9
288	7
290	18
291	11
292	8
304	25
305	12
306	7
318	16
319	8
320	8
331	9
332	14
333	190
334	51
335	13
336	7
