Mass Spectrum: Oxiranecarboxylic acid, 2-ethyl-3-methyl-3-phenyl-, ethyl ester
Formula: C14H18O3
CAS: 56630-76-3
Molecular weight: 234
m/z	intensity
41	48
43	620
44	24
50	41
51	135
52	48
53	17
55	24
57	480
58	13
63	39
64	4
65	33
76	26
77	315
78	276
79	41
89	24
90	7
91	167
92	11
102	63
103	452
104	999
105	263
106	7
115	22
116	4
117	15
119	20
120	7
121	500
122	48
128	17
129	20
130	4
131	22
132	63
133	39
145	150
146	200
147	98
148	7
149	700
150	85
159	20
160	261
161	152
162	22
173	11
174	13
188	15
205	4
219	17
233	7
234	46
235	2
