Mass Spectrum: Pyrrolidine, 1-(13-methyl-1-oxotetradecyl)-
Formula: C19H37NO
CAS: 56630-52-5
Molecular weight: 295
m/z	intensity
35	12
36	5
37	7
38	5
39	40
40	12
41	250
42	78
43	400
44	24
47	11
48	8
49	50
50	5
51	17
53	18
54	16
55	250
56	88
57	75
58	8
59	10
65	6
66	5
67	23
68	21
69	60
70	180
71	140
72	68
73	7
74	15
75	5
77	6
79	6
80	5
81	11
82	9
83	19
84	29
85	80
86	19
87	13
88	6
89	5
95	10
96	9
97	13
98	100
99	19
100	6
109	7
110	7
111	8
112	23
113	999
114	68
115	9
123	5
124	6
125	7
126	190
127	45
128	9
129	6
138	5
140	36
141	9
152	7
154	19
155	10
168	31
169	8
182	18
183	6
196	12
197	5
210	10
211	5
224	11
225	7
238	10
239	7
252	17
253	7
280	20
281	8
294	12
295	23
296	9
