Mass Spectrum: 9-Octadecenamide, N,N-diethyl-
Formula: C22H43NO
CAS: 56630-39-8
Molecular weight: 337
m/z	intensity
39	37
40	12
41	233
42	62
43	200
44	120
45	10
46	6
49	8
52	5
53	26
54	67
55	308
56	72
57	103
58	480
59	19
60	6
65	10
66	8
67	107
68	27
69	133
70	42
71	36
72	306
73	78
74	92
75	8
77	11
78	6
79	25
80	12
81	60
82	21
83	56
84	22
85	14
86	101
87	87
88	8
91	10
93	14
94	6
95	34
96	13
97	34
98	22
99	6
100	380
101	35
102	9
105	6
107	7
108	6
109	12
110	10
111	10
112	13
113	9
114	23
115	999
116	82
117	8
119	5
121	7
123	7
124	7
126	13
127	5
128	678
129	123
130	12
131	5
135	7
136	5
137	5
138	5
140	6
141	8
142	107
143	33
144	5
149	5
154	12
155	6
156	38
157	13
168	12
169	10
170	80
171	20
182	14
183	6
184	153
185	28
186	6
196	14
197	6
198	28
199	7
210	32
211	8
212	10
224	47
225	13
226	6
238	134
239	26
240	8
252	114
253	25
254	6
265	7
266	41
267	10
280	24
281	6
294	24
295	7
308	23
309	9
322	13
323	5
334	5
335	10
336	29
337	398
338	92
339	13
