Mass Spectrum: 3-Tridecanone, 8-methyl-13-phenyl-
Formula: C20H32O
CAS: 56630-77-4
Molecular weight: 288
m/z	intensity
29	176
30	1
31	2
32	64
39	29
40	2
41	173
42	22
43	132
45	1
51	14
52	1
53	20
54	11
55	202
56	44
57	588
58	23
59	13
64	1
65	58
66	2
67	58
68	32
69	110
70	19
71	38
72	382
73	176
74	14
77	38
78	23
79	47
80	11
81	102
82	88
83	105
84	22
85	217
86	19
87	4
89	5
90	4
91	999
92	235
93	26
94	14
95	125
96	44
97	73
98	26
99	29
100	2
101	1
103	20
104	544
105	242
106	23
107	14
108	8
109	66
110	51
111	20
112	2
113	17
114	11
115	14
116	4
117	132
118	69
119	69
120	11
121	11
122	14
123	117
124	44
125	22
128	4
129	19
130	139
131	205
132	202
133	33
134	11
135	2
136	1
137	32
138	14
139	2
141	7
142	4
143	32
144	35
145	58
146	14
147	14
148	2
149	14
151	4
153	7
157	11
158	5
159	32
160	13
161	2
163	2
166	20
167	4
171	27
172	14
173	66
174	23
175	20
176	4
179	14
185	27
186	13
187	2
188	14
189	4
199	17
200	11
201	2
202	4
213	8
214	250
215	44
216	61
217	14
227	7
228	7
241	20
242	5
259	47
260	11
269	4
270	76
271	16
272	11
273	4
274	4
286	13
287	2
288	227
289	47
290	8
