Mass Spectrum: 1-Naphthalenecarboxylic acid, 5-[2-(3-furanyl)ethyl]-3,4,4a,5,6,7,8,8a-octahydro-5,6,8a-trimethyl-, methyl ester, [4aS-(4a.alpha.,5.alpha.,6.beta.,8a.beta.)]-
Formula: C21H30O3
CAS: 56630-98-9
Molecular weight: 330
m/z	intensity
26	22
27	353
28	145
29	270
30	9
31	10
32	23
33	6
37	8
38	19
39	274
40	65
41	743
42	159
43	362
44	16
45	45
50	13
51	58
52	42
53	437
54	48
55	408
56	32
57	78
58	10
59	233
60	10
61	7
63	18
64	15
65	132
66	57
67	225
68	54
69	205
70	27
71	30
72	24
73	16
75	13
77	233
78	67
79	341
80	61
81	999
82	537
83	169
84	22
85	22
87	9
89	16
90	20
91	272
92	58
93	182
94	151
95	345
96	401
97	75
98	9
99	62
100	4
101	7
102	9
103	35
104	23
105	223
106	48
107	170
108	41
109	75
110	14
111	24
112	5
113	9
114	13
115	40
116	22
117	49
118	20
119	135
120	38
121	102
122	25
123	49
124	10
125	48
126	9
127	16
128	27
129	27
130	15
131	48
132	21
133	112
134	28
135	56
136	15
137	34
138	15
139	735
140	69
141	19
142	10
143	15
144	10
145	40
146	15
147	84
148	26
149	59
150	18
151	245
152	43
153	40
154	9
155	7
156	5
157	11
158	7
159	32
160	12
161	51
162	12
163	30
164	17
165	101
166	21
167	15
168	6
169	7
171	11
172	7
173	26
174	13
175	147
176	39
177	27
178	18
179	26
180	9
181	8
183	7
185	19
186	7
187	18
188	7
189	29
190	7
191	8
192	6
193	7
199	10
200	23
201	14
203	415
204	70
205	14
206	7
213	6
215	8
217	11
218	51
219	11
220	6
227	8
231	8
232	29
233	49
235	435
236	103
237	15
241	4
243	6
249	7
255	11
271	15
283	121
284	26
297	9
298	73
299	18
314	24
316	7
330	104
331	25
