Mass Spectrum: Pyrrolidine, 1-(3,6-dimethyl-1-oxopentadecyl)-
Formula: C21H41NO
CAS: 56630-62-7
Molecular weight: 323
m/z	intensity
39	28
40	8
41	210
42	61
43	310
44	14
53	12
54	8
55	260
56	80
57	100
58	6
67	12
68	14
69	75
70	140
71	110
72	53
81	9
83	16
84	9
85	85
95	6
96	5
97	10
98	140
99	11
111	6
112	23
113	999
114	80
126	14
140	190
141	33
154	29
155	7
168	21
196	18
210	11
308	14
322	5
323	11
