Mass Spectrum: 1-Propanamine, N,N,2-trimethyl-2-[(2,2,3-trimethyl-1-pyrrolidinyl)oxy]-, (S)-
Formula: C13H28N2O
CAS: 56630-75-2
Molecular weight: 228
m/z	intensity
31	12
32	144
37	12
38	19
39	166
40	44
41	344
42	360
43	148
44	383
45	89
46	112
50	19
51	32
52	17
53	85
54	53
55	416
56	291
57	76
58	553
59	130
60	21
65	12
66	12
67	51
68	53
69	212
70	521
71	130
72	17
73	37
74	41
77	10
79	16
80	21
81	53
82	85
83	114
84	380
85	428
86	101
87	66
94	23
95	46
96	158
97	151
98	346
99	553
100	999
101	485
102	76
103	3
108	12
109	3
110	37
111	33
112	344
113	51
114	517
115	89
116	19
117	3
124	8
125	5
126	69
127	91
128	148
129	196
130	178
131	17
141	17
