Mass Spectrum: Pyrrolidine, 1-(1-oxo-11,14-octadecadienyl)-
Formula: C22H39NO
CAS: 56630-46-7
Molecular weight: 333
m/z	intensity
39	46
40	12
41	230
42	45
43	190
44	27
48	6
49	16
51	11
52	7
53	44
54	74
55	390
56	100
57	42
58	9
59	5
60	5
63	5
64	5
65	22
66	15
67	280
68	55
69	100
70	410
71	130
72	230
73	14
77	41
78	16
79	95
80	49
81	140
82	31
83	30
84	19
85	100
86	11
91	35
92	8
93	35
94	16
95	59
96	24
97	16
98	190
99	31
100	10
105	10
107	16
108	8
109	24
110	13
111	9
112	39
113	999
114	80
115	10
116	5
117	5
119	8
120	5
121	13
122	8
123	11
124	9
125	6
126	560
127	120
128	12
135	8
136	7
137	6
138	6
140	82
141	21
142	5
145	5
149	8
150	6
152	11
153	5
154	38
155	12
156	5
163	5
164	5
166	11
167	6
168	74
169	14
178	6
180	10
181	6
182	53
183	12
192	5
194	12
195	5
196	43
197	11
200	5
202	5
205	8
206	7
207	5
208	14
209	7
210	59
211	11
220	13
221	6
222	14
223	5
224	24
225	7
234	15
235	6
236	16
237	7
238	18
239	5
248	12
249	5
250	60
251	26
252	20
253	6
262	14
263	8
264	58
265	22
266	7
276	19
277	7
278	16
279	7
288	7
290	27
291	9
292	8
302	7
304	39
305	11
306	7
318	13
319	5
329	5
330	8
331	13
332	17
333	410
334	110
335	27
336	9
