Mass Spectrum: Pyrrolidine, 1-(3-methyl-1-oxohexadecyl)-
Formula: C21H41NO
CAS: 56630-57-0
Molecular weight: 323
m/z	intensity
39	26
40	10
41	190
42	61
43	330
44	18
47	5
49	9
51	5
53	11
54	9
55	240
56	72
57	82
58	6
59	5
67	16
68	17
69	69
70	140
71	120
72	49
73	5
77	5
79	5
81	8
82	6
83	16
84	10
85	86
86	7
95	5
96	6
97	8
98	120
99	11
100	5
111	6
112	26
113	999
114	75
115	8
126	14
140	160
141	33
142	6
154	34
155	7
168	9
182	11
183	5
196	7
210	5
224	5
238	5
266	7
280	7
308	11
309	6
322	9
323	12
324	5
