Mass Spectrum: 7-Nonynoic acid
Formula: C9H14O2
CAS: 56630-32-1
Molecular weight: 154
m/z	intensity
14	10
15	50
16	3
17	4
18	10
19	7
25	1
26	90
27	980
28	180
29	360
30	10
31	90
32	3
36	2
37	20
38	70
39	900
40	160
41	900
42	120
43	200
44	10
45	400
46	10
47	7
48	1
49	10
50	130
51	280
52	180
53	730
54	420
55	800
56	60
57	60
58	20
59	120
60	150
61	10
62	20
63	60
64	10
65	150
66	170
67	520
68	999
69	90
70	20
71	30
72	6
73	60
74	19
76	4
77	160
78	40
79	760
80	110
81	310
82	40
83	110
84	20
85	10
86	9
87	7
88	4
89	5
90	3
91	110
92	30
93	190
94	760
95	210
96	20
97	40
98	40
99	10
100	10
101	20
102	2
103	3
104	1
105	8
106	2
107	30
108	50
109	40
110	6
111	20
112	20
113	5
114	2
115	2
117	2
118	4
119	2
120	1
121	10
122	2
123	1
124	1
125	15
126	22
127	2
128	1
129	1
135	4
136	10
137	5
138	1
139	3
153	1
154	6
155	2
