Mass Spectrum: Pyrrolidine, 1-(7-methyl-1-oxohexadecyl)-
Formula: C21H41NO
CAS: 56630-56-9
Molecular weight: 323
m/z	intensity
35	8
37	5
39	37
40	11
41	230
42	74
43	420
44	20
45	5
47	11
48	6
49	35
50	5
51	11
53	15
54	11
55	280
56	85
57	120
58	9
59	7
67	20
68	24
69	61
70	190
71	140
72	76
73	11
79	5
81	15
82	7
83	20
84	22
85	78
86	14
95	8
96	6
97	13
98	110
99	18
100	6
107	5
109	6
110	6
111	6
112	21
113	999
114	76
115	7
124	6
125	5
126	180
127	44
128	7
138	6
140	38
141	10
152	5
153	5
154	21
155	16
168	86
169	13
196	22
197	9
210	25
211	8
224	7
238	7
252	8
266	7
280	5
294	6
308	8
309	2
322	10
323	23
324	8
