Mass Spectrum: Pyrrolidine, 1-[8-(2-octylcyclopropyl)-1-oxooctyl]-
Formula: C23H43NO
CAS: 56630-59-2
Molecular weight: 349
m/z	intensity
35	96
36	22
37	39
38	12
39	76
40	22
41	400
42	130
43	520
44	34
45	10
47	85
48	59
49	29
50	24
51	140
52	11
53	41
54	80
55	580
56	170
57	110
58	15
59	8
64	8
65	12
66	13
67	93
68	54
69	160
70	340
71	150
72	150
73	13
74	7
75	7
77	15
78	9
79	21
80	11
81	51
82	18
83	53
84	250
85	150
86	160
87	7
88	26
91	10
93	11
94	9
95	30
96	21
97	30
98	190
99	31
100	15
107	11
108	8
109	14
110	11
111	14
112	38
113	999
114	77
115	12
116	5
117	5
118	5
119	5
120	5
121	8
122	5
123	10
124	13
125	12
126	480
127	100
128	11
135	9
136	8
137	10
138	10
139	11
140	69
141	25
142	9
144	7
147	7
149	9
151	9
152	19
153	11
154	34
155	20
156	7
166	15
167	10
168	82
169	20
170	6
171	6
179	8
180	15
182	53
183	16
184	6
185	6
194	19
195	9
196	30
197	11
198	8
208	34
209	14
210	19
211	10
213	8
222	34
223	21
224	22
225	9
236	66
237	19
238	10
239	8
250	93
251	25
252	10
253	9
254	8
264	28
265	11
266	9
267	9
278	27
279	24
280	11
292	19
293	10
294	9
306	34
307	14
308	9
310	8
318	8
320	21
321	11
334	14
335	10
336	7
337	8
338	7
340	7
345	8
346	7
347	8
348	17
349	100
350	35
351	11
