Mass Spectrum: Pyrrolidine, 1-(3,6,13-trimethyl-1-oxotetradecyl)-
Formula: C21H41NO
CAS: 56630-60-5
Molecular weight: 323
m/z	intensity
39	33
40	11
41	190
42	63
43	420
44	20
49	6
51	5
53	16
54	9
55	240
56	81
57	78
58	9
59	5
67	16
68	18
69	77
70	130
71	120
72	57
73	7
77	5
79	6
81	10
82	6
83	20
84	13
85	86
86	8
87	5
93	5
95	8
96	8
97	13
98	130
99	13
100	5
101	5
109	7
110	5
111	8
112	26
113	999
114	82
115	9
123	5
124	6
125	5
126	14
127	5
138	5
139	5
140	190
141	34
142	7
152	5
154	32
155	9
168	22
169	6
196	21
197	6
210	12
211	5
224	7
226	7
238	5
252	6
253	5
266	7
267	5
280	8
281	5
308	26
309	10
322	9
323	15
324	7
