Mass Spectrum: Pyrrolidine, 1-(15-methyl-1-oxohexadecyl)-
Formula: C21H41NO
CAS: 56630-53-6
Molecular weight: 323
m/z	intensity
35	58
36	12
37	21
38	5
39	36
40	11
41	240
42	67
43	300
44	17
47	61
48	30
49	290
50	15
51	76
53	14
54	13
55	250
56	79
57	190
58	13
65	5
67	19
68	19
69	61
70	200
71	130
72	67
73	7
77	5
79	5
81	11
82	6
83	19
84	140
85	75
86	84
87	5
88	14
95	6
96	6
97	11
98	91
99	15
100	5
107	5
109	5
111	6
112	20
113	999
114	77
115	7
124	6
126	190
127	45
128	7
138	5
140	36
141	9
152	5
154	18
155	9
168	30
169	8
182	19
183	8
196	11
197	5
210	10
224	10
225	5
238	8
252	8
266	13
267	5
280	7
281	5
294	24
295	8
308	13
309	5
322	12
323	23
324	8
