Mass Spectrum: Pregnan-20-one, 3,17-dihydroxy-16-methyl-, (3.beta.,5.beta.,16.alpha.)-
Formula: C22H36O3
CAS: 56630-85-4
Molecular weight: 348
m/z	intensity
50	18
51	115
52	73
53	527
54	257
55	999
56	83
57	365
58	66
59	50
60	10
61	8
62	7
63	35
64	18
65	220
66	110
67	751
68	186
69	358
70	59
71	280
72	532
73	43
74	15
75	16
76	10
77	540
78	141
79	835
80	167
81	745
82	125
83	210
84	66
85	420
86	125
87	33
88	10
89	28
90	20
91	806
92	169
93	820
94	255
95	525
96	110
97	105
98	59
99	40
100	33
101	470
102	45
103	60
104	47
105	534
106	220
107	750
108	395
109	110
110	74
111	90
112	17
113	18
114	40
115	100
116	42
117	130
118	63
119	294
120	165
121	423
122	192
123	223
124	91
125	59
126	35
127	56
128	68
129	76
130	36
131	145
132	55
133	265
134	165
135	337
136	116
137	107
138	25
139	24
140	13
141	38
142	32
143	62
144	32
145	190
146	68
147	340
148	152
149	208
150	50
151	38
152	17
153	19
154	8
155	23
156	15
157	57
158	35
159	204
160	110
161	347
162	124
163	113
164	29
165	40
166	12
167	15
168	5
169	21
170	12
171	47
172	34
173	152
174	95
175	220
176	170
177	87
178	25
179	23
180	6
181	8
182	5
183	18
184	10
185	42
186	24
187	129
188	75
189	88
190	38
191	45
192	16
193	15
194	5
195	5
196	3
197	17
198	10
199	68
200	27
201	127
202	80
203	90
204	27
205	20
206	10
207	8
208	5
209	7
210	3
211	18
212	14
213	84
214	59
215	500
216	160
217	180
218	63
219	27
220	22
221	8
223	5
224	2
225	12
226	12
227	43
228	76
229	238
230	542
231	420
232	108
233	116
234	32
235	8
236	2
237	5
238	5
239	13
240	10
241	33
242	20
243	54
244	38
245	25
246	50
247	28
248	198
249	54
250	5
251	9
252	12
253	27
254	24
255	125
256	55
257	33
258	68
259	37
260	18
261	9
262	10
263	10
264	8
265	13
266	3
267	16
268	18
269	549
270	167
271	52
272	14
273	53
274	17
275	4
276	32
277	5
279	15
280	10
281	10
282	4
283	60
284	62
285	41
286	20
287	435
288	140
289	20
291	5
294	28
295	10
296	20
297	80
298	88
299	32
300	12
301	22
302	79
303	24
304	4
305	90
306	18
310	8
312	150
313	43
314	45
315	51
316	76
317	25
318	5
320	24
330	392
331	92
332	22
333	3
334	7
346	10
348	228
349	57
350	5
