Mass Spectrum: 9,15-Octadecadienoic acid, methyl ester
Formula: C19H34O2
CAS: 56630-73-0
Molecular weight: 294
m/z	intensity
26	7
27	180
28	59
29	230
30	7
31	15
32	4
33	4
35	2
37	2
38	6
39	240
40	50
41	999
42	120
43	170
44	11
45	30
46	1
47	2
48	1
49	1
50	5
51	18
52	16
53	160
54	220
55	650
56	73
57	36
58	3
59	190
60	7
61	3
62	2
63	5
64	2
65	41
66	36
67	470
68	160
69	260
70	23
71	14
72	2
73	27
74	140
75	11
76	2
77	41
78	14
79	120
80	68
81	300
82	240
83	95
84	16
85	14
86	2
87	73
88	9
89	2
90	1
91	27
92	6
93	45
94	32
95	170
96	110
97	41
98	11
99	7
100	2
101	11
102	2
103	2
104	2
105	9
106	4
107	23
108	18
109	80
110	95
111	27
112	4
113	4
114	3
115	9
116	2
117	3
118	1
119	7
120	3
121	23
122	16
123	54
124	46
125	18
126	3
127	3
128	3
129	6
130	2
131	3
132	1
133	6
134	3
135	18
136	14
137	23
138	16
139	7
140	3
141	4
142	2
143	7
144	2
145	2
146	1
147	4
148	1
149	9
150	11
151	11
152	7
153	2
154	3
155	2
156	1
157	14
158	2
159	2
160	1
161	2
162	1
163	6
164	8
165	5
166	3
167	3
168	2
169	2
170	1
171	4
172	1
173	2
174	1
175	2
176	1
177	4
178	9
179	3
180	2
181	4
182	2
183	1
185	2
186	1
187	2
188	1
189	2
190	1
191	3
192	4
193	2
194	1
195	2
196	2
197	1
199	2
201	3
202	1
205	3
206	9
207	3
208	1
209	2
210	5
211	2
212	2
213	2
215	2
219	3
220	7
221	2
223	2
224	4
234	2
235	2
237	3
238	7
239	2
245	2
251	7
252	7
253	1
262	4
263	16
264	4
265	3
266	2
292	1
293	1
294	45
295	9
296	2
