Mass Spectrum: 5,8-Octadecadienoic acid, methyl ester
Formula: C19H34O2
CAS: 56630-74-1
Molecular weight: 294
m/z	intensity
27	190
28	90
29	390
30	10
31	10
32	20
39	180
40	30
41	870
42	130
43	720
44	30
45	30
50	10
51	20
52	20
53	150
54	330
55	710
56	130
57	360
58	20
59	170
60	10
65	80
66	120
67	999
68	330
69	380
70	80
71	180
72	20
73	20
74	280
75	40
77	210
78	140
79	780
80	880
81	800
82	500
83	310
84	100
85	170
86	10
87	80
88	10
91	260
92	80
93	470
94	660
95	550
96	440
97	250
98	80
99	50
100	10
101	40
103	10
104	20
105	110
106	80
107	270
108	200
109	310
110	210
111	90
112	30
113	30
114	10
115	50
116	10
117	30
118	20
119	60
120	30
121	250
122	150
123	170
124	130
125	40
126	20
127	60
128	20
129	30
130	10
131	60
132	10
133	30
134	20
135	210
136	280
137	110
138	110
139	30
140	110
141	80
142	20
143	20
145	30
146	10
147	20
148	10
149	170
150	170
151	70
152	90
153	30
154	70
155	30
156	10
157	10
159	20
160	10
161	20
162	10
163	80
164	90
165	50
166	70
167	30
168	50
169	20
173	20
175	10
177	30
178	110
179	70
180	30
181	20
182	20
183	10
187	10
191	20
192	20
193	20
194	10
195	20
196	20
205	20
206	40
207	20
208	10
209	20
210	10
218	20
219	10
220	260
221	50
222	10
223	10
224	10
234	30
245	60
246	10
262	140
263	50
264	10
280	10
294	410
295	90
296	10
