Mass Spectrum: 2-Docosenoic acid, 2,4,21-trimethyl-, methyl ester, (E)-
Formula: C26H50O2
CAS: 56630-80-9
Molecular weight: 394
m/z	intensity
13	2
14	2
15	19
16	19
18	9
19	2
26	29
27	103
28	178
29	168
30	15
34	4
37	9
38	15
39	118
40	29
41	594
42	108
43	801
44	9
45	35
47	2
48	2
49	9
50	4
51	9
53	83
54	75
55	633
56	281
57	841
58	49
59	138
60	2
63	4
65	23
66	15
67	376
68	118
69	841
70	158
71	297
72	49
73	39
74	43
77	23
78	9
79	55
80	23
81	330
82	198
83	851
84	103
85	257
86	35
87	59
88	999
89	49
90	4
91	15
92	4
93	59
94	35
95	435
96	148
97	336
98	79
99	118
100	59
101	673
102	69
104	2
105	19
106	2
107	49
108	19
109	306
110	257
111	287
112	69
113	79
114	19
115	69
116	9
117	2
119	4
121	29
122	19
123	118
124	158
125	108
126	39
127	386
128	148
129	89
130	4
131	9
132	2
134	2
135	15
136	4
137	55
138	35
139	55
140	19
141	99
142	712
143	89
144	4
146	4
147	4
148	19
149	15
150	9
151	19
152	2
153	19
154	13
155	49
156	19
157	4
158	4
159	9
161	15
163	2
164	2
165	19
166	13
167	19
168	13
169	29
170	2
171	4
172	2
178	2
179	9
180	4
181	9
182	15
183	19
184	9
189	2
190	4
191	4
193	9
194	2
195	15
196	4
197	9
198	4
203	9
204	2
205	9
207	15
209	9
211	2
212	2
213	4
215	2
216	2
217	4
218	4
219	4
220	4
221	4
222	15
223	15
224	9
225	4
226	4
227	9
228	2
229	2
230	2
231	2
233	4
234	2
235	2
236	9
237	15
239	4
240	9
241	4
242	2
243	2
244	2
247	9
250	4
251	4
252	13
253	4
254	4
255	4
256	2
259	2
261	2
263	9
264	4
265	13
266	9
268	2
269	9
274	2
275	2
277	2
278	2
279	2
280	4
281	2
283	9
284	4
285	2
286	2
288	4
291	19
292	4
293	4
294	9
295	2
297	2
298	19
299	2
300	4
301	4
302	4
303	4
304	9
305	15
306	43
307	59
308	19
309	4
310	2
311	9
312	13
313	4
315	4
317	2
318	2
319	15
320	19
321	23
322	2
323	13
324	2
325	39
326	15
332	9
333	39
334	29
335	19
336	9
337	4
338	2
339	9
340	2
341	9
343	2
344	2
345	4
346	2
347	23
348	4
349	4
350	2
351	9
352	19
353	4
354	4
355	15
356	2
360	4
361	13
362	75
364	23
365	19
366	2
367	4
368	4
369	2
374	2
375	4
376	13
377	4
378	19
379	4
380	2
382	4
384	2
390	4
391	4
392	19
393	19
394	574
395	158
396	23
397	2
