Mass Spectrum: Eicosanoic acid, 2-[(1-oxohexadecyl)oxy]-1-[[(1-oxohexadecyl)oxy]methyl]ethyl ester
Formula: C55H106O6
CAS: 56630-28-5
Molecular weight: 862
m/z	intensity
26	6
27	57
28	23
29	203
30	5
31	12
32	1
38	3
39	31
40	8
41	366
42	93
43	999
44	33
45	15
46	1
47	1
50	1
51	1
52	1
53	14
54	48
55	481
56	130
57	999
58	60
59	24
60	81
61	39
62	1
63	1
65	2
66	5
67	118
68	69
69	369
70	87
71	575
72	38
73	121
74	29
75	9
76	1
77	2
78	2
79	24
80	17
81	148
82	66
83	309
84	412
85	339
86	41
87	35
88	6
89	1
91	4
92	1
93	26
94	16
95	196
96	57
97	230
98	636
99	112
100	30
101	20
102	10
103	4
104	1
105	2
106	1
107	20
108	11
109	109
110	30
111	118
112	236
113	57
114	14
115	31
116	57
117	757
118	46
119	7
120	2
121	33
122	8
123	57
124	17
125	48
126	57
127	27
128	10
129	57
130	7
131	1
132	1
133	2
134	2
135	36
136	7
137	30
138	13
139	23
140	25
141	18
142	9
143	10
144	2
145	2
146	1
147	1
148	1
149	12
150	3
151	12
152	9
153	12
154	23
155	14
156	7
157	11
158	387
159	142
160	13
161	2
162	1
163	5
164	2
165	6
166	6
167	6
168	14
169	10
170	6
171	433
172	48
173	7
174	1
175	1
176	4
177	10
178	2
179	3
180	2
181	7
182	12
183	8
184	5
185	48
186	9
187	1
188	1
189	1
190	1
191	2
192	2
193	2
194	9
195	10
196	10
197	6
198	3
199	17
200	7
201	1
202	1
203	1
204	1
205	1
206	1
207	1
208	2
209	7
210	5
211	5
212	2
213	57
214	12
215	2
216	1
217	1
218	1
219	5
220	4
221	6
222	2
223	2
224	1
225	3
226	2
227	112
228	23
229	3
230	1
231	1
232	1
233	1
234	1
235	1
236	10
237	16
238	75
239	818
240	145
241	32
242	8
243	1
244	1
245	1
246	7
247	1
248	1
249	1
250	1
251	2
252	2
253	3
254	7
255	31
256	15
257	7
258	1
259	1
260	2
261	1
262	1
263	1
264	1
265	3
266	2
267	12
268	3
269	38
270	11
271	2
272	1
273	1
274	1
275	1
276	1
277	1
278	1
279	1
280	20
281	7
282	2
283	28
284	10
285	2
286	1
287	1
288	1
289	1
290	1
291	1
292	1
293	1
294	3
295	3
296	3
297	19
298	8
299	17
300	3
301	1
302	1
303	1
304	1
305	1
306	1
307	1
308	6
309	3
310	4
311	72
312	29
313	193
314	43
315	6
316	1
317	1
318	1
319	1
320	1
321	1
322	1
323	1
324	2
325	25
326	11
327	3
328	1
329	1
330	1
331	4
332	1
333	1
334	1
335	1
336	1
337	1
338	2
339	12
340	4
341	28
342	6
343	1
344	1
345	1
349	1
350	1
351	1
352	3
353	18
354	148
355	787
356	184
357	27
358	3
359	1
364	1
365	1
366	1
367	96
368	25
369	5
370	1
371	1
372	1
373	12
374	3
375	1
378	1
379	1
380	1
381	9
382	4
383	8
384	2
385	1
392	1
393	1
394	1
395	4
396	16
397	4
398	1
399	15
400	3
401	1
402	1
403	1
405	1
406	1
407	1
408	1
409	13
410	5
411	1
412	1
414	3
415	1
416	1
419	1
420	1
421	1
422	1
423	31
424	13
425	2
426	1
427	1
428	1
435	1
436	1
437	5
438	2
439	1
440	1
441	1
442	1
443	1
448	1
449	1
450	1
451	7
452	3
453	1
454	1
465	9
466	4
467	1
468	1
476	2
477	1
478	1
479	7
480	5
481	1
482	1
483	1
493	4
494	3
495	1
496	1
507	19
508	9
509	2
510	1
511	1
521	7
522	5
523	1
524	1
525	1
535	2
536	1
537	1
538	1
539	1
548	1
549	5
550	25
551	13
552	3
553	1
578	1
579	1
592	1
593	1
594	1
610	1
