Mass Spectrum: Pyrrolidine, 1-(1,6-dioxooctadecyl)-
Formula: C22H41NO2
CAS: 56630-89-8
Molecular weight: 351
m/z	intensity
39	140
40	30
41	690
42	230
43	999
44	40
45	21
47	180
48	92
49	56
50	31
51	11
52	9
53	40
54	58
55	490
56	230
57	740
58	40
59	11
60	22
61	7
63	5
65	9
66	9
67	59
68	68
69	230
70	300
71	400
72	65
73	32
74	6
75	5
77	11
78	5
79	14
80	13
81	34
82	54
83	410
84	330
85	280
86	18
87	42
91	14
92	10
93	10
94	6
95	17
96	26
97	100
98	100
99	62
100	9
101	7
104	5
105	9
107	7
108	5
109	9
110	16
111	52
112	44
113	330
114	30
115	9
117	7
118	8
119	6
120	8
121	6
122	6
123	7
124	11
125	21
126	77
127	46
128	7
129	8
135	5
136	6
137	8
138	10
139	10
140	60
141	25
142	6
143	6
149	6
151	5
152	8
153	8
154	53
155	28
156	6
158	6
166	6
167	6
168	16
169	18
170	5
171	6
180	6
181	5
182	18
183	13
194	7
195	6
196	10
197	32
198	8
208	5
210	19
211	10
212	5
214	5
215	5
224	9
225	10
226	7
236	5
238	7
239	10
240	5
252	9
253	8
254	5
266	6
267	8
268	5
280	6
281	7
294	5
295	6
308	5
309	5
323	5
335	6
336	5
337	5
338	7
339	5
351	8
352	5
