Mass Spectrum: Bicyclo[3.3.1]nonan-2-one, 1-methyl-9-(1-methylethylidene)-
Formula: C13H20O
CAS: 56630-95-6
Molecular weight: 192
m/z	intensity
27	370
28	350
29	320
40	490
41	80
42	999
43	60
44	300
51	140
52	80
53	360
54	50
55	500
57	130
63	40
65	190
66	90
67	380
68	40
69	190
73	40
77	440
78	130
79	550
80	100
81	470
82	90
83	70
91	600
92	100
93	800
94	200
95	330
96	45
97	30
103	70
104	30
105	250
106	400
107	540
108	180
109	120
110	160
111	30
115	50
117	70
118	30
119	120
120	50
121	460
122	110
123	120
124	30
131	90
132	20
133	90
134	50
135	350
136	350
137	400
138	30
145	50
146	40
147	30
148	20
149	450
150	150
151	30
159	135
160	10
161	10
162	90
163	60
174	30
177	520
178	80
192	650
193	80
