Mass Spectrum: Cyclohexane, 1,2-propadienyl-
Formula: C9H14
CAS: 5664-17-5
Molecular weight: 122
m/z	intensity
12	4
13	5
14	15
15	111
16	4
25	5
26	94
27	770
28	140
29	306
30	7
36	2
37	37
38	108
39	965
40	187
41	999
42	80
43	170
44	19
46	5
49	9
50	101
51	30
52	119
53	379
54	315
55	975
56	50
57	31
58	7
59	6
61	11
62	31
63	79
64	24
65	169
66	268
67	704
68	310
69	28
70	14
71	105
72	7
73	12
74	13
75	19
76	11
77	346
78	143
79	833
80	738
81	694
82	78
83	176
84	13
85	3
86	5
87	4
89	11
90	8
91	165
92	39
93	495
94	186
95	22
96	4
98	2
99	4
102	3
103	6
104	3
105	22
106	8
107	408
108	36
109	3
115	10
120	2
121	21
122	128
123	13
