Mass Spectrum: 3-[2-Hydroxy-3-phthalimidopropyl]-2-oxazolidinone
Formula: C14H14N2O5
CAS: 56642-99-0
Molecular weight: 290
m/z	intensity
42	509
43	95
44	142
45	103
49	5
50	96
51	70
52	13
54	46
56	657
57	109
58	80
63	18
64	7
65	26
68	190
69	7
70	31
72	12
73	11
74	65
76	250
77	256
78	21
79	2
80	45
81	47
82	7
84	14
86	33
88	20
89	28
91	46
92	14
98	21
100	54
101	999
102	81
104	233
105	89
106	8
112	48
113	2
116	5
117	56
124	2
128	9
130	266
133	228
134	22
139	8
144	50
146	2
148	36
156	2
159	4
160	477
161	118
162	25
169	15
172	133
173	9
174	36
185	3
186	72
187	10
188	9
190	229
191	19
201	114
203	76
215	198
216	13
246	28
272	23
273	2
290	10
