Mass Spectrum: S-2-[2-Acetoxy-3-phthalimidopropylamino]ethyl hydrogenthiosulfate
Formula: C15H18N2O7S2
CAS: 56643-01-7
Molecular weight: 402
m/z	intensity
41	19
42	68
43	743
45	276
46	29
48	114
50	176
51	74
52	21
54	157
55	25
56	999
57	39
58	7
59	159
60	209
61	66
62	16
64	161
65	62
66	28
67	7
68	30
69	23
70	10
71	4
72	20
73	34
74	43
75	25
76	211
77	143
78	19
80	36
81	14
82	20
84	720
85	34
86	23
87	12
88	37
89	33
90	56
91	7
92	15
93	0
94	4
96	11
97	63
98	11
99	5
101	15
102	91
103	14
104	157
105	62
106	9
107	1
108	1
109	1
110	0
111	2
112	2
113	0
114	18
115	2
116	10
117	79
118	28
119	6
120	11
121	3
122	2
123	0
124	26
125	0
126	5
127	2
128	4
130	133
131	32
132	35
133	54
134	6
135	0
136	2
138	0
140	1
141	0
142	49
144	29
145	12
146	18
147	31
148	20
149	3
152	26
153	3
154	4
155	6
156	9
157	6
158	3
159	10
160	164
161	63
162	8
163	1
169	5
170	0
171	11
172	11
173	40
174	18
175	6
179	0
180	0
181	2
183	131
184	119
185	52
186	117
187	15
188	5
189	3
190	9
197	1
199	4
201	210
202	41
203	26
204	7
206	0
212	0
213	3
215	8
216	1
218	2
219	1
220	0
226	4
227	2
228	1
229	1
232	0
233	3
234	0
243	6
244	22
245	220
246	29
247	5
257	0
258	1
259	2
260	1
261	10
262	1
263	3
271	1
274	2
275	3
276	5
277	3
278	1
284	1
287	0
294	1
300	1
302	16
303	15
304	6
305	10
306	1
307	0
320	1
321	2
322	0
323	0
325	0
332	3
333	0
336	1
337	3
402	1
