Mass Spectrum: S-2-[.alpha.-Hydroxyphenethylamino]ethyl hydrogen thiosulfate
Formula: C10H15NO4S2
CAS: 56643-26-6
Molecular weight: 277
m/z	intensity
41	81
42	173
43	120
44	126
45	235
46	19
47	82
48	404
49	267
50	114
51	319
52	77
56	289
57	999
58	30
59	184
60	115
61	165
63	146
64	670
65	100
66	17
69	44
71	20
74	19
75	41
76	78
77	324
78	206
79	70
80	39
84	52
86	50
88	526
89	145
90	268
91	305
92	57
101	52
102	123
103	185
104	472
105	116
115	98
116	20
117	70
118	17
121	299
122	147
123	20
124	26
128	18
130	75
132	108
133	194
134	51
135	108
137	90
144	40
162	23
177	149
178	20
179	594
180	77
192	19
202	42
230	98
231	334
232	89
277	37
278	17
