Mass Spectrum: 3-Hydroxy-3-methyl-6-phenyl-4-piperidone, cis
Formula: C12H15NO2
CAS: 56642-36-5
Molecular weight: 205
m/z	intensity
91	480
103	200
104	790
105	650
106	440
118	999
119	810
120	150
133	310
134	140
162	140
187	350
188	190
205	390
