Mass Spectrum: Dimethyl 3-hydroxy-3-methylpentane-1,5-dioate
Formula: C8H14O5
CAS: 56652-39-2
Molecular weight: 190
m/z	intensity
31	65
33	7
37	0
38	2
39	23
40	31
41	27
42	130
43	999
44	44
45	25
52	2
53	11
54	5
55	35
56	11
57	45
58	30
59	112
60	3
61	0
64	0
67	0
68	0
69	43
70	1
71	7
72	1
73	4
74	97
75	50
76	2
77	1
81	8
82	5
83	4
84	11
85	347
86	18
87	2
88	4
91	0
97	5
98	0
99	4
101	107
102	5
108	4
109	9
111	8
112	17
113	11
114	1
116	12
117	422
118	24
119	2
127	8
135	5
140	20
141	52
142	3
143	111
144	7
159	1
175	12
