Mass Spectrum: Pyrrolidine, 1-(1-oxo-11-eicosenyl)-
Formula: C24H45NO
CAS: 56650-77-2
Molecular weight: 363
m/z	intensity
35	15
36	7
37	6
38	6
39	49
40	17
41	231
42	86
43	426
44	83
45	7
47	16
48	9
49	73
50	6
51	25
52	5
53	23
54	53
55	386
56	106
57	86
58	10
59	5
60	12
61	24
62	7
63	11
65	8
66	7
67	83
68	53
69	155
70	445
71	145
72	119
73	9
75	11
77	13
78	6
79	19
80	9
81	46
82	18
83	50
84	56
85	132
86	35
87	7
88	7
91	8
93	8
94	6
95	29
96	16
97	40
98	154
99	36
100	7
101	5
106	5
107	5
109	10
110	9
111	13
112	35
113	999
114	83
115	7
116	7
117	24
119	24
121	8
123	5
124	7
125	6
126	406
127	98
128	9
131	33
132	6
133	31
134	6
135	14
140	63
141	18
149	10
151	5
152	8
154	28
155	12
166	5
168	63
169	12
176	5
178	12
182	37
183	9
196	34
197	8
202	5
210	40
211	8
222	6
224	13
236	11
238	5
250	22
251	7
264	79
265	20
278	85
279	19
292	27
293	8
306	15
307	5
320	14
334	13
335	5
348	5
362	20
363	271
364	79
365	11
