Mass Spectrum: Tricyclo[2.2.1.0(1,4)]heptan-2-one, 6-nitro-
Formula: C7H7NO3
CAS: 56666-50-3
Molecular weight: 153
m/z	intensity
30	60
38	60
39	210
40	40
41	40
50	100
51	200
52	130
53	130
65	60
66	85
77	999
78	280
79	890
107	460
