Mass Spectrum: 5(4H)-Isoxazolone, 4-diazo-3-phenyl-
Formula: C9H5N3O2
CAS: 56666-67-2
Molecular weight: 187
m/z	intensity
51	170
52	30
61	40
62	60
63	60
64	20
65	10
73	30
74	60
75	220
76	60
77	80
78	10
84	10
85	10
86	20
87	30
88	10
89	10
90	10
98	20
99	10
100	30
101	110
102	20
103	70
104	10
114	10
115	10
128	10
129	999
130	110
131	20
159	10
186	10
187	510
188	60
189	10
