Mass Spectrum: 1,3-Dioxolane-4-methanol, .alpha.-ethynyl-2,2-dimethyl-, acetate
Formula: C10H14O4
CAS: 56666-75-2
Molecular weight: 198
m/z	intensity
26	38
27	51
28	14
29	44
32	3
39	64
41	64
42	121
43	999
44	448
58	77
59	51
61	44
72	44
81	51
101	384
111	38
123	19
183	282
184	25
