Mass Spectrum: 3-Hexanamine, 3-ethyl-
Formula: C8H19N
CAS: 56667-17-5
Molecular weight: 129
m/z	intensity
15	10
16	10
17	10
18	50
27	20
28	10
29	30
30	20
41	80
42	60
43	20
44	10
45	10
55	40
56	30
57	90
58	999
59	40
60	10
69	10
70	10
71	10
72	50
73	10
83	10
84	10
85	10
86	10
87	10
98	10
100	10
114	40
115	10
