Mass Spectrum: 1,4-Dioxane, 2-(2-furanyl)-
Formula: C8H10O3
CAS: 56666-97-8
Molecular weight: 154
m/z	intensity
27	40
28	2
29	60
32	0
38	140
39	125
40	40
41	40
43	20
50	20
51	35
52	35
53	45
65	50
66	40
68	40
81	95
82	20
94	150
95	450
96	999
97	125
98	50
110	40
124	10
154	340
155	30
