Mass Spectrum: Pyrrolidine, 1-(6-hydroxy-1-oxooctadecyl)-
Formula: C22H43NO2
CAS: 56666-42-3
Molecular weight: 353
m/z	intensity
39	40
40	18
41	240
42	70
43	350
44	38
45	30
51	5
53	22
54	26
55	300
56	90
57	140
58	19
59	12
60	8
65	6
66	6
67	60
68	34
69	80
70	230
71	120
72	140
73	22
75	9
77	8
78	5
79	12
80	7
81	36
82	15
83	44
84	42
85	100
86	10
87	12
88	6
89	8
91	7
93	9
94	6
95	30
96	16
97	28
98	120
99	23
100	11
101	7
103	6
107	5
108	6
109	12
110	20
111	19
112	26
113	999
114	90
115	11
121	6
123	12
124	11
125	9
126	190
127	53
128	8
129	5
133	5
135	5
136	5
137	7
138	9
139	8
140	60
141	14
149	5
151	7
152	10
153	7
154	90
155	38
156	7
166	13
167	6
168	5
180	16
181	6
182	20
183	7
184	150
185	20
194	18
195	6
197	28
198	13
199	5
202	5
208	10
210	20
211	5
222	8
236	6
250	5
252	5
256	9
264	6
292	5
306	5
334	7
335	30
336	9
353	9
354	5
355	5
