Mass Spectrum: 3-Penten-2-one, 1,1,1,5,5,5-hexafluoro-4-mercapto-
Formula: C5H2F6OS
CAS: 56666-70-7
Molecular weight: 224
m/z	intensity
69	999
75	210
85	610
86	30
87	70
95	230
97	70
107	240
113	120
155	640
156	40
157	60
185	190
204	90
223	190
224	250
225	20
