Mass Spectrum: Pyrrolidine, 1-(1-oxo-11,14-eicosadienyl)-
Formula: C24H43NO
CAS: 56666-44-5
Molecular weight: 361
m/z	intensity
39	150
40	40
41	790
42	150
43	570
44	43
45	18
47	32
48	15
49	130
50	14
51	52
52	18
53	110
54	230
55	999
56	200
57	140
58	19
59	27
60	9
61	8
62	8
63	13
64	10
65	52
66	46
67	600
68	160
69	270
70	670
71	220
72	330
73	22
74	20
75	14
77	93
78	25
79	240
80	120
81	350
82	100
83	90
84	70
85	170
86	48
87	16
88	11
89	13
91	76
92	22
93	82
94	41
95	160
96	82
97	54
98	270
99	50
100	16
101	10
102	7
103	11
104	10
105	23
106	13
107	34
108	19
109	61
110	52
111	30
112	53
113	999
114	84
115	13
116	9
117	10
118	8
119	14
120	9
121	32
122	14
123	25
124	30
125	17
126	520
127	120
128	15
129	9
130	7
131	9
132	7
133	12
134	9
135	25
136	16
137	19
138	20
139	11
140	83
141	27
142	9
143	9
145	8
146	7
147	7
148	8
149	15
150	16
151	13
152	22
153	11
154	45
155	16
156	8
157	8
158	7
159	7
161	9
163	12
164	11
165	10
166	18
167	9
168	76
169	18
170	8
171	8
175	8
176	7
177	9
178	12
179	9
180	17
181	12
182	57
183	17
184	8
189	8
190	8
191	11
192	12
193	9
194	17
195	9
196	43
197	16
200	7
201	6
202	8
206	10
207	9
208	17
209	13
210	44
211	15
212	7
219	7
220	14
221	10
222	16
223	8
224	22
225	8
226	8
227	6
233	10
234	7
235	10
236	17
237	8
238	21
239	10
240	18
241	8
242	6
245	7
246	7
247	5
248	19
249	11
250	54
251	25
252	29
253	9
261	8
262	14
263	10
264	62
265	25
266	13
267	8
276	18
277	11
278	15
279	10
280	9
281	8
282	6
288	8
289	6
290	24
291	17
292	13
293	8
294	8
302	9
304	33
305	16
306	13
307	8
318	27
319	12
320	10
321	7
322	9
323	7
332	18
333	11
346	11
358	9
359	12
360	18
361	350
362	90
363	22
364	9
