Mass Spectrum: Pyrrolidine, 1-(1-oxo-11-octadecynyl)-
Formula: C22H39NO
CAS: 56666-39-8
Molecular weight: 333
m/z	intensity
39	75
40	27
41	277
42	98
43	330
44	29
45	13
50	12
51	19
52	27
53	65
54	53
55	400
56	110
57	40
58	13
62	12
63	15
64	12
65	33
66	21
67	165
68	54
69	104
70	319
71	135
72	154
73	12
77	42
78	19
79	81
80	35
81	108
82	27
83	27
84	19
85	108
86	15
91	31
92	15
93	35
94	19
95	50
96	23
97	23
98	150
99	27
100	14
102	12
103	12
104	12
105	15
106	12
107	19
108	12
109	27
110	15
111	12
112	35
113	999
114	88
115	18
116	11
117	12
118	12
119	12
120	12
121	15
122	15
123	15
124	18
125	13
126	246
127	69
128	12
129	12
135	15
136	12
137	12
138	12
139	15
140	53
141	18
142	12
143	12
149	15
150	15
151	13
152	19
153	12
154	38
155	15
156	12
164	13
165	13
166	15
167	15
168	58
169	17
170	12
176	12
177	12
178	13
179	12
180	15
181	13
182	27
183	13
184	12
191	12
192	12
193	12
194	15
195	12
196	35
197	15
198	12
199	12
206	12
207	12
208	17
209	12
210	58
211	19
212	12
220	15
221	13
222	19
223	12
224	13
225	12
234	19
235	15
236	15
237	13
238	13
248	29
249	17
250	15
251	12
262	24
263	21
264	12
274	12
276	27
277	17
278	12
290	15
291	13
292	12
304	15
305	12
318	12
333	77
334	29
335	13
