Mass Spectrum: 1-Cyclopentene-1-methanol, .alpha.,.alpha.,4,5-tetramethyl-, cis-
Formula: C10H18O
CAS: 56666-68-3
Molecular weight: 154
m/z	intensity
26	2
27	160
28	45
29	110
31	20
38	3
39	200
40	38
41	390
42	37
43	999
44	30
45	32
50	11
51	45
52	25
53	150
54	80
55	650
56	80
57	85
58	100
59	40
60	15
61	40
62	18
63	19
65	50
66	23
67	200
68	16
69	600
70	50
71	80
72	13
77	80
78	18
79	130
80	24
81	700
82	62
83	130
84	65
85	20
91	60
92	15
93	110
94	32
95	140
96	380
97	200
98	25
105	50
106	25
107	300
108	40
109	32
110	28
111	200
112	17
119	14
121	360
122	42
123	18
124	15
125	140
126	13
136	250
137	50
139	180
140	18
154	220
155	25
