Mass Spectrum: 5(4H)-Isoxazolone, 4-[(4,5-dihydro-3-methyl-5-oxo-4-isoxazolyl)azo]-3-phenyl-
Formula: C13H10N4O4
CAS: 56666-65-0
Molecular weight: 286
m/z	intensity
51	370
52	100
53	40
54	30
55	20
56	20
57	20
61	30
62	60
63	100
64	70
65	30
66	40
67	320
68	30
69	40
70	10
71	60
72	20
73	20
74	80
75	130
76	130
77	420
78	50
79	10
80	20
81	10
82	20
83	10
84	20
85	10
86	20
87	10
88	30
89	70
90	40
91	80
92	10
93	180
94	20
98	20
99	60
100	10
101	60
102	100
103	999
104	170
105	90
106	30
109	30
115	20
116	40
117	20
118	10
119	100
120	10
125	280
126	40
127	10
128	10
129	330
130	50
131	20
132	20
144	40
145	30
161	560
162	70
163	10
187	200
188	30
189	10
241	20
242	10
243	20
286	30
287	10
