Mass Spectrum: Pyrrolidine, 1-[1-oxo-5-(3-undecyloxiranyl)pentyl]-
Formula: C22H41NO2
CAS: 56666-43-4
Molecular weight: 351
m/z	intensity
39	100
40	27
41	490
42	150
43	550
44	51
45	13
47	24
48	12
49	93
50	8
51	35
52	8
53	42
54	63
55	580
56	180
57	140
58	21
59	8
60	7
61	6
63	7
64	8
65	12
66	10
67	100
68	58
69	170
70	530
71	170
72	220
73	16
75	7
77	14
78	8
79	33
80	15
81	61
82	19
83	61
84	52
85	120
86	34
87	7
88	7
89	5
91	11
92	7
93	16
94	9
95	33
96	17
97	25
98	190
99	30
100	11
101	6
103	7
104	6
105	8
106	7
107	10
108	6
109	14
110	17
111	15
112	37
113	999
114	77
115	10
116	6
117	5
118	5
119	6
120	6
121	10
122	7
123	8
124	13
125	12
126	360
127	79
128	12
129	6
130	5
131	5
132	5
133	6
134	6
135	7
136	6
137	6
138	8
139	10
140	63
141	21
142	5
149	7
150	5
151	7
152	13
153	10
154	41
155	16
156	5
157	5
158	5
160	5
162	6
163	5
164	5
165	6
166	11
167	7
168	52
169	16
170	7
171	5
172	6
174	5
175	5
176	5
178	5
179	5
180	11
181	7
182	62
183	17
184	10
185	5
186	5
192	6
193	5
194	10
195	6
196	52
197	16
198	7
199	5
200	5
206	7
207	7
208	16
209	9
210	25
211	14
212	7
220	7
221	6
222	14
223	9
224	67
225	18
226	19
227	7
231	5
232	5
233	5
234	8
235	5
236	28
237	10
238	100
239	22
240	7
248	7
249	5
250	27
251	9
252	14
253	7
262	6
263	5
264	12
265	7
266	8
267	5
276	6
278	9
279	5
280	5
290	7
292	9
293	6
294	7
295	5
304	5
306	7
308	7
318	6
320	6
322	8
323	8
333	7
334	24
335	13
336	55
337	18
338	7
349	6
350	6
351	18
352	9
