Mass Spectrum: Pyrrolidine, 1-(12-hydroxy-1-oxooctadecyl)-
Formula: C22H43NO2
CAS: 56666-49-0
Molecular weight: 353
m/z	intensity
39	170
40	53
41	409
42	227
43	999
44	107
45	29
53	34
54	40
55	431
56	136
57	109
58	28
59	15
60	13
61	6
62	5
63	9
64	5
65	11
66	9
67	65
68	69
69	147
70	613
71	159
72	102
73	26
74	9
75	18
76	8
77	21
78	17
79	21
80	10
81	53
82	20
83	53
84	670
85	204
86	420
87	15
88	67
89	5
91	11
93	10
94	8
95	35
96	18
97	65
98	125
99	25
100	8
103	5
105	8
107	6
109	11
110	21
111	17
112	39
113	988
114	80
115	18
121	6
123	6
124	11
125	10
126	204
127	52
128	8
129	6
137	5
138	5
139	5
140	39
141	12
149	19
151	6
152	8
153	5
154	23
155	11
168	34
169	9
182	21
183	17
184	5
187	5
196	19
197	12
198	10
210	15
211	6
224	55
225	10
238	19
239	20
240	6
250	5
264	6
266	14
268	159
269	28
278	9
292	6
294	6
334	5
335	34
336	11
353	13
