Mass Spectrum: 3-Pyrazolidinone, 1,2,4,5-tetramethyl-
Formula: C7H14N2O
CAS: 56666-79-6
Molecular weight: 142
m/z	intensity
15	150
17	105
18	420
24	20
25	120
26	90
27	110
28	100
36	25
37	140
38	50
39	260
40	570
41	450
42	400
43	45
48	15
49	15
50	10
51	20
52	15
53	120
54	150
55	65
56	999
57	45
66	40
67	25
68	120
69	55
70	45
71	25
81	50
82	15
83	240
84	45
85	560
86	25
95	25
97	170
98	260
99	30
107	25
108	10
110	20
111	10
127	30
128	10
141	35
142	290
143	35
