Mass Spectrum: 1-Cyclopentene-1-methanol, .alpha.,.alpha.,4,5-tetramethyl-, trans-
Formula: C10H18O
CAS: 56666-69-4
Molecular weight: 154
m/z	intensity
26	5
27	170
28	60
29	120
31	18
38	3
39	210
40	40
41	400
42	35
43	999
44	40
45	32
50	13
51	50
52	25
53	160
54	80
55	650
56	80
57	85
58	100
59	35
60	12
61	28
62	15
63	22
65	55
66	25
67	200
68	150
69	600
70	50
71	75
72	12
77	95
78	20
79	160
80	25
81	700
82	60
83	150
84	65
85	17
91	80
92	16
93	130
94	30
95	140
96	360
97	200
98	25
103	10
105	90
106	35
107	300
108	40
109	25
110	23
111	210
112	22
119	20
121	500
122	56
123	6
124	10
125	140
126	12
136	300
137	60
139	160
140	15
154	220
155	25
