Mass Spectrum: 2-Thiabicyclo[3.1.0]hex-3-ene-6-carboxylic acid, 1,3-dimethyl-, methyl ester
Formula: C9H12O2S
CAS: 56666-52-5
Molecular weight: 184
m/z	intensity
26	55
27	100
28	62
29	110
31	70
39	130
41	80
42	80
43	400
44	60
45	150
53	75
55	60
58	90
59	500
69	40
71	40
73	70
74	60
75	60
77	50
79	40
85	115
91	70
97	50
101	90
103	50
109	35
111	90
113	510
114	60
115	60
123	60
124	70
125	999
126	110
127	80
137	50
138	30
139	60
153	90
184	180
185	60
186	20
187	10
