Mass Spectrum: Tricyclo[4.2.0.0(2,4)]oct-7-en-5-one
Formula: C8H8O
CAS: 56666-78-5
Molecular weight: 120
m/z	intensity
27	160
28	90
38	50
39	170
40	45
50	50
51	85
52	60
55	999
56	30
63	40
65	115
66	50
77	35
78	80
91	530
92	125
119	20
120	220
121	15
