Mass Spectrum: 2-Cyclohexen-1-one, 3-bromo-2-methyl-
Formula: C7H9BrO
CAS: 56671-83-1
Molecular weight: 188
m/z	intensity
26	23
27	191
28	33
29	11
37	12
38	34
39	161
40	40
41	121
42	14
43	12
50	79
51	161
52	101
53	610
54	36
55	130
62	14
63	31
65	67
66	52
67	84
74	12
75	12
77	78
78	21
79	179
80	36
81	999
82	58
88	4
91	10
95	4
98	4
107	7
109	647
110	43
160	406
161	26
162	400
163	24
188	635
189	45
190	635
191	43
