Mass Spectrum: 1H-Naphtho[2,1-b]pyran-7-carboxylic acid, 3-ethenyldodecahydro-3,4a,7,10a-tetramethyl-, methyl ester, [3R-(3.alpha.,4a.beta.,6a.alpha.,7.beta.,10a.beta.,10b.alpha.)]-
Formula: C21H34O3
CAS: 56687-75-3
Molecular weight: 334
m/z	intensity
26	38
27	364
28	182
29	435
30	32
31	43
39	239
40	92
51	37
52	28
53	298
54	69
55	999
56	95
57	183
58	47
59	185
60	46
64	107
65	88
66	59
67	478
68	178
69	273
70	70
71	164
73	71
77	189
78	61
79	324
80	86
81	855
82	178
83	153
84	41
85	64
87	36
88	50
91	236
92	62
93	316
94	98
95	382
96	203
97	100
98	19
99	26
101	86
102	86
103	32
110	38
111	63
112	28
113	19
114	33
115	36
116	20
117	50
118	20
119	218
120	76
121	500
122	107
123	166
124	23
125	41
127	20
128	23
129	28
130	29
131	47
132	23
133	163
134	62
135	147
136	47
137	53
138	13
139	34
141	14
143	16
145	54
146	19
147	112
148	80
149	94
150	16
151	76
152	16
153	26
159	50
160	16
161	119
162	23
163	62
165	32
167	20
169	23
173	63
174	16
175	146
176	182
177	238
178	36
179	25
180	23
181	57
185	22
187	35
188	26
189	88
190	17
191	53
204	57
205	52
207	41
221	36
229	26
235	97
236	354
237	73
241	213
242	41
247	26
257	39
259	157
260	35
264	26
275	59
287	49
301	156
302	35
316	38
319	746
320	162
321	18
334	12
