Mass Spectrum: 2-Docosenoic acid, 2,4,21,21-tetramethyl-, methyl ester, (Z)-
Formula: C27H52O2
CAS: 56687-70-8
Molecular weight: 408
m/z	intensity
15	20
16	10
17	10
26	24
27	40
28	64
29	140
30	10
31	4
32	10
37	10
38	16
39	80
40	16
41	344
42	60
43	320
44	24
45	20
48	2
51	4
52	4
53	36
54	36
55	330
56	224
57	999
58	50
59	64
61	2
65	24
66	10
67	180
68	50
69	430
70	64
71	140
72	16
73	20
74	4
77	14
78	2
79	34
80	20
81	194
82	130
83	460
84	30
85	110
86	20
87	20
88	460
89	34
91	14
92	4
93	24
94	20
95	244
96	80
97	154
98	24
99	50
100	10
101	320
102	20
103	2
105	4
106	2
107	30
108	16
109	200
110	130
111	140
112	20
113	34
114	20
115	30
116	2
117	10
121	10
122	10
123	70
124	70
125	60
126	30
127	260
128	120
129	40
130	2
131	4
135	10
136	4
137	36
138	14
139	30
140	10
141	56
142	344
143	50
144	4
145	4
149	4
151	10
152	2
153	20
154	10
155	30
157	4
158	4
159	4
165	4
166	16
167	14
168	4
169	16
171	2
178	2
181	14
182	10
183	10
192	2
194	4
195	4
196	4
197	4
198	4
200	4
207	20
209	4
222	2
223	2
228	2
235	4
236	4
241	4
249	2
251	4
252	4
253	4
254	2
256	4
262	2
263	10
264	4
265	4
266	4
268	2
269	2
278	4
290	2
291	2
292	2
298	4
303	2
305	16
306	4
319	10
320	16
321	24
322	4
325	2
326	4
333	30
334	10
339	20
340	4
347	4
348	4
349	4
350	4
351	4
352	90
353	40
354	10
355	4
361	30
362	16
366	4
374	2
375	20
376	60
377	20
378	4
392	2
393	110
394	40
395	4
406	10
407	10
408	380
409	120
410	24
411	2
