Mass Spectrum: Cyclopropaneoctanoic acid, 2-[(2-pentylcyclopropyl)methyl]-, methyl ester
Formula: C21H38O2
CAS: 56687-67-3
Molecular weight: 322
m/z	intensity
42	90
43	563
44	47
45	454
46	25
53	122
54	501
55	999
56	122
58	779
66	90
67	888
68	523
69	638
70	90
71	115
72	50
73	454
74	418
79	252
80	166
81	931
82	592
83	418
84	97
85	115
87	25
88	162
91	158
92	137
93	191
94	176
95	772
96	599
97	249
98	64
99	68
101	68
103	47
105	75
107	166
108	115
109	411
110	166
111	162
112	90
113	75
115	97
119	86
120	162
122	212
124	176
125	90
127	64
132	54
133	32
134	32
135	93
136	101
137	184
138	274
139	47
140	54
141	47
142	75
148	90
149	86
150	140
151	205
152	115
153	47
160	10
161	47
162	32
163	75
164	86
165	122
167	68
168	47
169	47
177	93
178	54
179	54
180	32
181	32
183	25
184	25
185	97
186	10
187	234
189	25
191	25
193	54
194	191
195	68
196	25
197	47
198	14
199	25
204	28
205	25
206	32
207	47
208	32
209	32
210	68
211	25
212	14
221	25
222	28
223	68
224	324
225	97
233	32
235	32
236	47
237	93
238	32
239	21
249	25
250	14
251	90
252	25
265	39
267	32
268	47
276	47
277	68
278	90
279	32
290	32
291	104
292	32
294	54
322	97
323	32
