Mass Spectrum: 1H-Naphtho[2,1-b]pyran-7-carboxylic acid, 3-ethenyldodecahydro-3,4a,7,10a-tetramethyl-, methyl ester, [3S-(3.alpha.,4a.alpha.,6a.beta.,7.alpha.,10a.alpha.,10b.beta.)]-
Formula: C21H34O3
CAS: 56687-76-4
Molecular weight: 334
m/z	intensity
26	8
27	189
28	74
29	216
30	7
31	12
32	6
33	7
39	135
40	45
41	580
42	58
43	999
44	99
45	45
51	17
52	12
53	208
54	38
55	638
56	36
57	52
58	19
59	127
60	8
61	6
64	9
65	54
66	36
67	355
68	153
69	177
70	23
71	106
72	10
73	30
74	7
75	10
77	124
78	35
79	229
80	58
81	621
82	127
83	86
84	14
85	32
87	14
88	28
89	20
90	0
91	135
92	27
93	165
94	48
95	188
96	101
97	34
98	6
99	15
100	0
101	53
102	45
103	16
104	9
105	108
106	32
107	178
108	51
109	172
110	22
111	39
112	23
113	12
114	21
115	16
116	12
117	24
118	11
119	111
120	43
121	302
122	64
123	106
124	16
125	26
126	4
127	11
128	12
129	11
130	17
131	24
132	12
133	93
134	30
135	88
136	30
137	36
138	11
139	24
140	6
141	6
142	4
143	7
145	29
146	11
147	71
148	44
149	63
150	12
151	56
152	10
153	15
155	4
157	6
159	27
160	9
161	78
162	17
163	42
164	10
165	18
166	8
167	13
168	4
169	17
171	7
172	5
173	33
174	9
175	61
176	124
177	165
178	25
179	24
180	17
181	37
182	7
185	8
187	22
188	12
189	57
190	12
191	39
192	13
193	12
194	7
195	9
199	7
201	9
203	12
204	41
205	42
206	13
207	17
208	6
215	6
216	5
217	12
219	10
221	25
229	19
231	12
232	7
233	10
234	7
235	58
236	276
237	57
238	8
241	156
242	31
247	21
248	7
249	7
251	9
257	16
259	124
260	26
264	23
265	6
269	10
275	48
276	10
287	43
288	13
289	13
301	140
302	32
307	13
319	642
320	140
321	17
334	7
