Mass Spectrum: 4,5-Isoxazoledione, 3-methyl-, 4-[(2-nitrophenyl)hydrazone]
Formula: C10H8N4O4
CAS: 5669-80-7
Molecular weight: 248
m/z	intensity
39	380
40	100
41	150
42	410
43	80
44	150
50	140
51	140
52	180
53	70
54	110
62	100
63	619
64	470
65	130
67	130
69	70
75	100
76	120
77	40
78	70
79	60
90	999
91	310
92	70
98	100
122	130
136	370
137	50
138	30
150	80
162	30
163	60
207	80
230	210
248	230
