Mass Spectrum: Benzoic acid, 2-methoxy-3-(4-methoxy-2-methyl-4-oxobutyl)-6-methyl
Formula: C16H22O5
CAS: 56704-66-6
Molecular weight: 294
m/z	intensity
27	33
28	7
29	48
31	14
38	4
39	84
40	13
41	140
42	26
43	67
44	6
45	999
46	20
50	12
51	48
52	21
53	41
54	7
55	66
56	4
57	8
58	8
59	148
62	5
63	35
64	18
65	158
66	26
67	39
68	10
69	62
71	21
72	6
73	10
74	26
75	20
76	14
77	123
78	82
79	124
80	16
81	36
82	8
83	8
84	7
85	78
86	11
87	10
88	9
89	50
90	48
91	283
92	36
93	39
94	12
95	28
96	9
97	9
98	10
99	5
101	23
102	31
103	113
104	59
105	232
106	25
107	25
108	5
109	6
110	5
111	12
112	5
113	6
114	6
115	102
116	38
117	52
118	52
119	132
120	47
121	21
122	8
124	4
125	8
126	5
127	19
128	52
129	48
130	30
131	87
132	40
133	161
134	38
135	38
136	9
137	17
139	6
141	12
142	8
143	32
144	26
145	107
146	77
147	132
148	47
149	37
150	7
154	4
155	4
157	22
158	15
159	64
160	102
161	295
162	91
163	265
165	31
167	4
171	32
172	13
173	68
174	22
175	69
176	21
177	22
178	9
179	5
185	7
187	58
188	657
189	507
190	71
191	28
192	9
193	527
194	74
195	10
196	14
198	4
200	8
202	25
203	52
204	22
205	21
207	8
208	15
209	7
215	16
216	5
217	9
219	20
220	256
221	83
222	10
231	46
232	7
233	8
234	12
236	20
237	7
238	5
247	72
248	13
260	27
262	789
263	419
264	63
265	7
294	309
295	61
296	7
