Mass Spectrum: Isoxazolidine, 4-ethyl-2,5-dimethyl-, cis-
Formula: C7H15NO
CAS: 56701-01-0
Molecular weight: 129
m/z	intensity
39	328
40	18
41	520
42	999
43	801
44	232
45	32
50	11
51	9
52	8
53	22
54	15
55	249
56	17
57	66
58	18
60	342
69	9
78	14
80	75
81	5
129	75
