Mass Spectrum: Triazane, 2-acetyl-1,3-bis[1-(hydroxyimino)ethyl]-
Formula: C6H13N5O3
CAS: 56700-82-4
Molecular weight: 203
m/z	intensity
40	183
41	944
42	999
54	83
55	94
56	111
57	55
67	122
70	72
71	94
72	222
81	90
82	466
86	66
98	139
100	194
110	166
124	90
125	150
155	72
167	61
184	155
203	22
204	8
