Mass Spectrum: Triazane, 1,3-bis[1-(hydroxyimino)ethyl]-2-(phenylmethyl)-
Formula: C11H17N5O2
CAS: 56700-85-7
Molecular weight: 251
m/z	intensity
41	53
42	264
43	62
65	103
74	58
84	43
88	24
89	17
90	999
91	90
100	26
102	34
106	106
118	45
129	66
145	47
160	22
161	17
162	18
163	18
174	61
178	402
179	42
190	166
191	20
192	54
201	15
203	20
216	7
217	5
218	7
234	206
235	27
251	11
252	2
