Mass Spectrum: 2-(2-Furyl)-1-phenylpropane
Formula: C13H14O
CAS: 56704-32-6
Molecular weight: 186
m/z	intensity
39	60
40	25
41	110
42	20
43	40
51	40
53	30
55	80
57	20
65	80
66	10
67	90
69	25
77	50
78	20
79	30
81	40
82	90
83	90
84	20
85	20
91	220
92	130
93	20
94	30
95	999
96	70
97	15
103	10
104	20
105	190
106	20
115	20
171	30
186	110
187	16
188	1
