Mass Spectrum: Bicyclo[3.3.1]nonan-3-one, 7-(aminomethyl)-
Formula: C10H17NO
CAS: 56701-31-6
Molecular weight: 167
m/z	intensity
27	45
28	60
29	37
30	999
31	25
32	10
39	78
40	20
41	130
42	25
43	40
44	17
45	10
51	15
53	45
54	32
55	62
56	55
57	32
58	20
59	17
60	17
65	20
66	20
67	80
68	38
69	52
70	28
71	10
72	20
73	66
77	48
78	20
79	95
80	130
81	47
82	50
83	27
84	87
85	10
91	37
92	20
93	43
94	57
95	875
96	88
97	23
98	13
99	13
100	11
105	10
106	10
107	25
108	33
109	20
110	260
111	62
124	85
125	10
126	10
138	290
139	33
149	65
150	27
152	40
166	31
167	145
168	23
