Mass Spectrum: 5-Chloropentanoic acid, benzyl ester
Formula: C12H15ClO2
CAS: 56703-28-7
Molecular weight: 226
m/z	intensity
26	22
27	89
28	6
29	73
30	3
39	105
40	20
41	106
42	77
43	36
44	3
50	33
51	75
52	22
53	21
54	8
55	320
56	57
57	24
58	3
59	3
60	2
61	6
62	17
63	56
64	15
65	105
66	8
67	3
68	4
69	10
70	43
71	24
72	3
73	8
74	8
75	9
76	8
77	66
78	24
79	75
80	6
81	6
82	5
83	18
84	17
85	4
87	2
88	3
89	44
90	175
91	999
92	89
93	41
94	3
95	4
96	3
99	3
100	19
101	8
103	2
104	2
105	33
106	13
107	62
108	937
109	76
110	4
112	6
113	2
117	3
118	8
119	141
120	14
121	47
122	3
128	7
130	5
131	2
135	2
136	3
137	2
190	3
226	65
227	9
228	22
229	4
