Mass Spectrum: Isoxazolidine, 5-ethyl-2,4-dimethyl-, cis-
Formula: C7H15NO
CAS: 56701-02-1
Molecular weight: 129
m/z	intensity
39	235
40	87
41	437
42	999
43	595
44	224
45	47
50	29
51	6
52	4
53	18
54	6
55	194
56	327
57	126
58	40
60	333
69	49
78	12
80	71
81	42
82	7
129	92
