Mass Spectrum: Hexadecaneperoxoic acid, 1,1-dimethyl-3-[(1-oxohexadecyl)oxy]propyl ester
Formula: C37H72O5
CAS: 56712-07-3
Molecular weight: 596
m/z	intensity
26	4
27	34
28	60
29	89
30	2
31	3
32	6
36	1
37	1
38	2
39	18
40	5
41	208
42	47
43	283
44	13
45	11
46	1
50	1
51	2
52	1
53	8
54	13
55	99
56	55
57	228
58	15
59	11
60	51
61	14
62	1
63	1
64	1
65	2
66	3
67	40
68	512
69	999
70	139
71	119
72	7
73	53
74	4
75	1
76	1
77	1
78	1
79	5
80	2
81	19
82	17
83	61
84	25
85	59
86	5
87	7
88	2
89	2
91	1
92	1
93	2
94	2
95	18
96	8
97	28
98	23
99	9
100	14
101	7
102	1
103	1
104	1
105	1
106	1
107	2
108	1
109	9
110	6
111	14
112	8
113	5
114	5
115	7
116	2
117	1
118	1
119	1
120	1
121	2
122	1
123	4
124	1
125	7
126	3
127	3
128	79
129	17
130	3
131	1
132	1
133	1
134	1
135	2
136	1
137	2
138	1
139	4
140	1
141	25
142	4
143	2
144	1
145	1
146	1
147	3
148	1
149	2
150	1
151	1
152	1
153	2
154	1
155	2
156	1
157	3
158	1
161	1
163	1
164	1
165	1
166	1
167	1
168	1
169	1
170	1
171	2
172	1
173	1
177	1
178	1
179	1
180	1
181	1
182	1
183	1
184	1
185	2
186	1
191	1
192	1
193	1
194	1
195	1
196	1
197	2
198	1
199	1
200	1
207	3
208	1
209	1
210	1
211	1
212	1
213	3
214	1
215	1
216	1
217	1
218	1
219	1
220	1
221	2
222	1
223	1
224	1
225	1
226	1
227	1
236	3
237	5
238	3
239	69
240	11
241	1
251	1
252	1
253	1
254	2
255	7
256	11
257	14
258	3
259	1
264	1
265	1
266	1
267	1
268	2
269	1
280	1
281	2
282	1
283	2
284	1
285	1
295	1
296	1
297	1
298	1
308	1
309	1
323	1
324	35
325	64
326	16
327	3
328	1
339	1
355	1
356	1
357	1
429	1
