Mass Spectrum: Tricyclo[3.3.1.1(3,7)]decane-2,6-dione, 4-amino-
Formula: C10H13NO2
CAS: 56728-08-6
Molecular weight: 179
m/z	intensity
41	93
44	51
55	121
56	999
57	108
69	117
70	156
72	57
79	78
82	83
94	52
96	88
134	121
162	89
179	478
180	63
