Mass Spectrum: Isoxazolidine, 5-ethyl-2,4-dimethyl-, trans-
Formula: C7H15NO
CAS: 56728-14-4
Molecular weight: 129
m/z	intensity
39	282
40	94
41	456
42	999
43	768
44	297
45	149
50	12
51	12
52	7
53	37
54	12
55	310
56	210
57	156
58	94
60	724
69	234
78	23
80	101
81	87
82	37
129	130
