Mass Spectrum: Pseudosolasodine o,N-diacetate
Formula: C31H47NO4
CAS: 5672-30-0
Molecular weight: 497
m/z	intensity
41	82
43	999
44	43
45	14
49	3
51	5
53	31
55	155
56	21
57	26
58	27
60	36
61	3
63	2
65	26
67	108
69	45
70	41
72	92
73	27
74	5
77	42
79	80
81	112
82	15
84	83
86	49
87	1
91	108
93	105
95	306
96	35
97	11
98	5
99	1
100	4
101	34
103	12
105	163
106	16
107	77
108	26
109	163
110	16
112	36
114	227
115	28
117	54
118	5
119	40
120	8
121	63
122	27
123	31
124	10
126	56
127	5
128	22
129	21
131	48
133	61
134	9
135	20
136	11
137	9
138	6
139	5
140	4
141	9
143	52
145	103
146	11
147	41
148	4
149	30
150	13
151	11
152	1
153	5
155	17
156	11
157	40
158	14
159	20
160	2
161	6
162	49
163	115
164	27
165	25
166	17
168	21
169	5
170	1
171	13
172	2
173	13
175	11
177	17
178	3
180	12
181	4
182	7
183	8
185	29
186	10
187	5
188	0
189	3
190	1
191	1
192	1
193	1
195	7
197	32
198	6
199	42
200	5
201	2
203	3
204	1
206	6
208	7
209	3
210	20
211	8
214	216
215	111
216	16
217	3
219	3
222	39
223	28
224	28
225	15
226	2
227	6
228	12
229	2
235	5
236	4
237	23
238	3
240	58
241	7
242	1
248	1
249	2
250	2
252	88
253	60
254	11
255	2
256	1
257	1
263	1
264	0
265	1
267	3
269	7
270	2
271	1
274	1
275	1
276	3
277	1
279	2
281	44
282	10
283	0
284	1
286	0
289	0
291	2
292	0
295	1
296	2
297	3
298	1
305	2
307	0
309	19
310	3
312	2
313	1
314	1
316	1
318	0
319	2
321	0
323	12
324	4
326	1
328	2
337	9
342	1
345	1
347	1
360	1
362	2
363	2
365	5
366	2
369	2
376	0
378	14
380	3
383	1
384	1
394	1
395	1
396	0
397	2
404	9
405	3
419	7
420	0
422	30
423	11
426	0
437	80
438	32
439	2
454	1
455	1
482	1
495	1
497	218
498	66
499	12
500	1
