Mass Spectrum: Isoxazolidine, 4-ethyl-2,5-dimethyl-, trans-
Formula: C7H15NO
CAS: 56728-13-3
Molecular weight: 129
m/z	intensity
39	427
40	72
41	453
42	999
43	739
44	234
45	157
50	114
51	229
52	156
53	44
54	11
55	16
56	92
57	67
58	109
60	479
69	25
78	6
80	67
81	2
82	2
129	99
