Mass Spectrum: 1H-Imidazo[1,2-b]pyrazole, 1-methyl-
Formula: C6H7N3
CAS: 56728-16-6
Molecular weight: 121
m/z	intensity
28	100
32	40
38	90
39	230
40	140
41	100
42	140
52	70
53	450
54	999
55	80
64	60
65	80
66	110
79	210
80	480
81	140
93	130
106	220
120	470
121	999
122	80
