Mass Spectrum: Tricyclo[3.3.1.1(3,7)]decane-2,6-dione, 4-(chloroacetyl)-
Formula: C12H13ClO3
CAS: 56728-09-7
Molecular weight: 240
m/z	intensity
40	68
41	344
43	372
44	60
49	64
51	104
52	64
53	140
55	308
57	60
65	124
66	84
67	132
68	60
69	80
77	208
78	152
79	999
80	100
81	60
84	104
91	316
92	100
94	104
95	292
96	372
105	108
107	760
108	220
109	72
117	84
118	160
120	104
135	236
136	64
163	672
164	132
176	80
204	72
205	300
206	256
240	364
242	120
