Mass Spectrum: 1,3-Dioxolane, 2-(6-octynyl)-
Formula: C11H18O2
CAS: 56741-65-2
Molecular weight: 182
m/z	intensity
26	4
27	75
28	20
29	45
30	2
31	13
38	3
39	66
40	14
41	91
42	17
43	36
44	15
45	240
46	5
50	7
51	20
52	15
53	64
54	16
55	53
56	6
57	14
58	3
63	5
65	19
66	14
67	52
68	18
69	10
70	2
71	6
73	999
74	65
75	8
77	28
78	6
79	51
80	13
81	25
82	5
83	6
84	2
86	14
87	5
88	3
91	25
92	7
93	30
94	19
95	24
96	4
97	3
99	30
100	9
101	2
105	7
107	10
108	4
109	14
110	3
111	1
112	1
113	2
114	2
115	1
119	2
120	4
121	5
123	5
125	15
126	2
127	2
137	7
138	6
139	17
140	2
141	1
149	2
153	5
154	3
155	0
167	9
168	1
181	28
182	4
183	0
