Mass Spectrum: 1,3-Dioxolane, 2-(6-octenyl)-, (Z)-
Formula: C11H20O2
CAS: 56741-63-0
Molecular weight: 184
m/z	intensity
26	3
27	57
28	25
29	70
30	2
31	11
39	59
40	11
41	104
42	23
43	30
44	21
45	228
46	7
51	5
52	3
53	26
54	21
55	122
56	13
57	27
58	9
59	4
65	6
66	5
67	49
68	28
69	32
70	10
71	10
73	999
74	65
75	11
77	7
78	2
79	27
80	13
81	44
82	12
83	15
84	4
85	4
86	19
87	5
88	7
89	8
91	4
93	38
94	35
95	18
96	20
97	21
98	4
99	78
100	7
101	12
102	106
103	7
107	16
108	2
109	5
110	2
111	4
112	1
113	6
114	3
116	7
117	2
121	2
122	61
123	15
124	3
125	2
127	20
128	3
135	6
136	1
139	5
140	2
141	24
142	3
152	1
153	2
155	18
156	3
169	2
183	44
184	20
185	3
