Mass Spectrum: trans-4,5-Epoxynonane
Formula: C9H18O
CAS: 56740-09-1
Molecular weight: 142
m/z	intensity
37	10
38	20
39	350
40	70
41	850
42	620
43	820
44	620
45	90
46	10
50	20
51	40
52	20
53	110
54	80
55	850
56	380
57	999
58	200
59	20
63	10
65	20
66	20
67	140
68	160
69	450
70	190
71	240
72	390
73	160
74	10
79	10
80	40
81	20
82	170
83	90
84	70
85	60
86	160
87	190
88	30
91	10
93	10
95	120
96	20
97	50
98	30
99	440
100	60
113	160
114	20
124	50
126	4
127	60
128	5
142	60
143	10
