Mass Spectrum: Methanesulfinyl fluoride
Formula: CH3FOS
CAS: 56755-41-0
Molecular weight: 82
m/z	intensity
32	420
45	160
46	70
47	30
48	430
51	40
60	50
63	110
64	100
65	80
67	999
82	950
