Mass Spectrum: 2H-Pyran-3-ol, 6-ethenyltetrahydro-2,2,6-trimethyl-, acetate, trans-
Formula: C12H20O3
CAS: 56752-50-2
Molecular weight: 212
m/z	intensity
26	1
27	23
28	7
29	23
30	1
31	7
38	1
39	51
40	15
41	126
42	25
43	999
44	27
45	11
50	2
51	10
52	7
53	61
54	16
55	195
56	14
57	28
58	7
59	178
60	6
61	4
62	1
63	1
64	1
65	22
66	11
67	163
68	297
69	53
70	13
71	63
72	129
73	11
74	2
77	30
78	8
79	150
80	12
81	78
82	47
83	57
84	18
85	22
86	12
87	3
91	26
92	4
93	130
94	459
95	74
96	13
97	28
98	6
99	18
100	12
101	87
102	5
103	1
105	1
107	19
108	17
109	46
110	7
111	45
112	9
113	5
114	49
115	4
116	1
117	1
118	2
119	22
120	1
121	7
122	1
123	3
124	3
125	37
126	33
127	5
129	1
135	2
136	111
137	111
138	12
139	3
141	1
142	2
143	34
144	3
152	7
153	1
154	38
155	56
156	6
169	1
170	1
179	4
180	1
185	12
186	1
197	52
198	7
