Mass Spectrum: 2(3H)-Thiazolimine, 3-hydroxy-4-methyl-
Formula: C4H6N2OS
CAS: 56756-78-6
Molecular weight: 130
m/z	intensity
25	13
26	46
27	113
29	44
30	13
31	12
33	4
39	108
40	33
41	51
42	252
43	144
44	25
45	427
46	49
47	29
48	4
50	3
51	7
52	10
53	12
54	22
55	25
56	10
57	20
58	70
59	75
60	181
61	24
62	17
63	3
64	4
65	22
66	8
67	67
68	11
69	187
70	29
71	330
72	188
73	101
74	19
75	5
76	6
77	3
79	4
81	12
82	4
83	5
84	5
85	12
86	229
87	30
88	20
89	4
90	2
93	2
95	2
96	3
97	5
98	4
99	4
102	25
103	67
104	6
105	4
111	3
112	28
113	317
114	419
115	38
116	17
128	4
129	5
130	999
131	60
132	46
133	3
