Mass Spectrum: 2-Methyl-4-(2,6,6-trimethylcyclohex-2-enyl)but-3-en-2-ol
Formula: C14H24O
CAS: 56763-65-6
Molecular weight: 208
m/z	intensity
26	1
27	60
28	10
29	48
30	2
31	32
38	2
39	74
40	15
41	204
42	17
43	487
44	12
45	49
46	1
50	4
51	22
52	11
53	68
54	9
55	121
56	29
57	32
58	6
59	143
60	6
61	2
62	2
63	8
64	4
65	47
66	16
67	98
68	73
69	74
70	7
71	51
72	71
73	5
74	4
75	6
76	2
77	132
78	37
79	128
80	70
81	315
82	39
83	21
84	8
85	28
86	3
87	2
88	2
89	5
90	3
91	162
92	49
93	201
94	109
95	103
96	19
97	34
98	12
99	4
100	1
101	1
102	3
103	16
104	9
105	66
106	31
107	135
108	68
109	999
110	96
111	15
112	2
113	2
114	1
115	16
116	6
117	20
118	6
119	163
120	22
121	104
122	28
123	114
124	17
125	9
126	1
127	3
128	5
129	6
130	3
131	9
132	3
133	20
134	119
135	59
136	22
137	241
138	25
139	20
140	3
141	2
142	1
143	2
144	1
145	5
146	0
147	12
148	3
149	11
150	15
151	6
152	608
153	68
154	4
155	1
156	1
157	0
158	1
159	3
160	1
161	2
162	0
169	1
170	3
171	1
172	1
173	1
174	1
175	29
176	5
177	2
178	1
179	1
183	1
184	1
185	2
186	1
187	1
188	0
189	1
190	22
191	8
192	4
193	29
194	3
195	0
208	41
209	5
210	1
211	0
