Mass Spectrum: 2(5H)-Furanone, 5-(1-methylethyl)-
Formula: C7H10O2
CAS: 56767-19-2
Molecular weight: 126
m/z	intensity
26	50
27	223
28	1
29	42
30	0
31	2
36	1
37	7
38	15
39	99
40	11
41	211
42	16
43	247
44	7
45	0
49	1
50	6
51	7
52	3
53	12
54	28
55	147
56	62
57	7
58	0
61	1
62	2
63	3
64	0
65	3
66	1
67	5
68	1
69	6
70	2
71	5
72	0
73	0
74	0
77	1
78	0
79	2
80	0
81	2
82	8
83	45
84	999
85	43
86	4
93	1
94	0
95	0
97	46
98	4
99	0
108	0
109	0
110	0
111	16
112	1
115	0
124	0
125	0
126	18
127	2
