Mass Spectrum: Cyclohexane, 4-methyl-2-methylene-1-(1-methylethylidene)-
Formula: C11H18
CAS: 56763-62-3
Molecular weight: 150
m/z	intensity
26	16
27	374
28	42
29	233
30	5
37	5
38	20
39	494
40	87
41	581
42	37
43	157
44	5
50	30
51	124
52	75
53	224
54	32
55	215
56	19
57	20
58	9
59	6
61	2
62	11
63	47
64	21
65	146
66	39
67	306
68	37
69	70
70	7
74	5
75	10
76	6
77	300
78	63
79	341
80	58
81	92
82	479
83	33
84	2
89	12
90	5
91	360
92	49
93	999
94	117
95	108
96	12
102	4
103	21
104	10
105	110
106	41
107	526
108	158
109	51
110	4
115	15
116	5
117	14
118	3
119	32
120	15
121	273
122	139
123	14
124	3
128	3
133	7
134	4
135	346
136	35
138	3
149	13
150	622
151	70
152	4
