Mass Spectrum: Pentane, 2,2'-oxybis-
Formula: C10H22O
CAS: 56762-00-6
Molecular weight: 158
m/z	intensity
21	0
23	0
24	0
26	22
27	164
29	148
30	3
31	16
35	2
37	4
38	6
39	109
40	17
41	230
42	112
43	999
44	47
45	467
46	11
47	0
49	0
50	1
51	4
52	1
53	17
54	6
55	256
56	13
57	8
58	7
59	13
63	0
65	1
67	4
68	1
69	17
70	54
71	965
72	59
73	148
74	6
83	0
85	1
86	3
87	23
88	0
89	0
97	90
98	6
99	1
114	1
115	231
116	17
143	4
