Mass Spectrum: Dihydro-.alpha.-methylionone
Formula: C14H24O
CAS: 56763-64-5
Molecular weight: 208
m/z	intensity
41	515
42	48
43	207
44	8
45	6
50	8
51	43
52	25
53	176
54	26
55	247
57	999
58	37
59	11
62	2
63	10
65	92
66	30
67	195
68	48
69	91
70	6
71	6
72	14
73	6
75	1
77	185
78	38
79	271
80	94
81	365
82	40
83	16
85	130
86	9
89	3
91	214
92	118
93	457
94	164
95	354
96	64
97	13
98	2
99	3
102	1
103	12
104	8
105	112
106	25
107	192
108	118
109	106
110	17
111	15
112	2
113	2
115	7
116	2
117	6
119	85
121	873
122	100
123	202
124	75
125	11
131	2
132	2
133	15
134	23
136	551
137	89
138	8
145	3
146	2
147	12
148	2
149	7
150	2
151	3
152	19
153	3
157	2
160	3
161	40
162	6
165	3
175	45
176	7
179	5
190	191
191	31
192	2
193	13
194	2
208	9
