Mass Spectrum: 2-Cyclohexene-1-carboxaldehyde, 2,6-dimethyl-6-(4-methyl-3-pentenyl)-
Formula: C15H24O
CAS: 56772-07-7
Molecular weight: 220
m/z	intensity
57	74
59	49
65	164
67	338
68	77
69	999
70	40
77	210
78	34
79	205
80	37
81	357
82	193
83	184
85	16
91	386
92	47
93	380
94	65
95	337
96	40
97	146
105	205
106	103
107	720
108	184
109	902
110	85
119	128
120	124
121	238
122	163
123	189
124	79
131	47
133	77
135	293
136	57
137	310
138	164
147	117
148	45
149	104
161	79
162	291
163	26
177	85
187	64
189	19
191	33
202	56
205	305
206	42
220	28
