Mass Spectrum: 2AH-Cyclobut[a]indene-2a-carboxylic acid, 1,2,7,7a-tetrahydro-, methyl ester
Formula: C13H14O2
CAS: 56771-44-9
Molecular weight: 202
m/z	intensity
26	35
27	50
38	40
49	15
50	35
54	120
58	15
61	10
62	50
63	15
64	30
74	15
75	15
76	10
77	20
78	10
87	410
88	35
89	35
91	25
102	10
114	15
115	320
116	999
117	110
127	35
128	140
129	45
130	20
139	15
141	90
142	45
143	115
144	20
145	10
171	35
174	80
175	10
202	30
