Mass Spectrum: L-Tyrosine, 3-(1-methylethoxy)-N,O-bis(1-methylethyl)-, 1-methylethyl ester
Formula: C21H35NO4
CAS: 56771-68-7
Molecular weight: 365
m/z	intensity
107	156
114	187
116	999
117	302
123	552
124	999
135	125
152	135
158	500
165	489
166	156
207	208
208	531
278	770
279	156
308	166
350	197
365	312
