Mass Spectrum: 1,3,5-Cycloheptatriene-1-carboxamide, 7-methyl-
Formula: C9H11NO
CAS: 56771-82-5
Molecular weight: 149
m/z	intensity
44	185
45	2
49	2
50	27
51	86
52	22
53	28
54	1
55	6
56	0
58	0
59	1
61	4
62	14
63	55
64	9
65	42
66	6
67	2
69	3
70	1
71	0
73	2
74	9
75	13
76	7
77	209
78	60
79	165
80	15
81	1
85	0
86	1
87	0
89	59
90	27
91	273
92	30
93	9
94	1
95	1
101	5
102	7
103	112
104	201
105	999
106	149
107	27
108	0
115	8
116	59
117	30
118	9
119	3
120	6
121	3
122	16
123	1
127	1
130	36
131	54
132	116
133	175
134	122
135	11
136	3
141	1
146	0
147	11
148	804
149	999
150	99
