Mass Spectrum: 2,6-Decadienoic acid, 8-methyl-4-propyl-, ethyl ester
Formula: C16H28O2
CAS: 56771-51-8
Molecular weight: 252
m/z	intensity
27	42
28	7
29	107
31	7
39	49
40	13
41	190
42	18
43	109
44	4
45	11
51	6
52	5
53	63
54	19
55	999
56	63
57	22
58	8
60	4
65	19
66	10
67	93
68	40
69	144
70	11
71	62
72	5
73	8
77	37
78	7
79	59
80	14
81	107
82	126
83	43
84	8
85	14
87	11
88	11
91	38
92	6
93	52
94	14
95	92
96	106
97	494
98	43
99	10
100	40
101	6
103	4
105	19
106	5
107	56
108	21
109	57
110	55
111	169
112	22
113	51
114	5
115	10
117	5
119	9
121	35
122	15
123	39
124	50
125	24
126	12
127	22
128	270
129	25
133	7
135	71
136	29
137	35
138	9
139	39
140	31
141	65
142	7
143	6
147	4
149	29
150	8
151	10
152	5
153	23
154	30
155	9
156	413
157	51
158	5
163	34
164	45
165	27
166	8
167	46
168	25
169	51
170	7
177	36
178	123
179	201
180	34
181	46
182	12
183	4
189	5
191	13
194	6
195	4
196	5
198	28
206	35
207	192
208	30
209	59
210	15
221	5
223	12
250	18
251	6
252	135
253	27
254	4
