Mass Spectrum: Cyclohexanone, 6-methyl-3-(1-methylethyl)-2-(2-oxopropyl)-
Formula: C13H22O2
CAS: 56772-10-2
Molecular weight: 210
m/z	intensity
29	530
30	20
31	40
32	1
36	20
37	70
38	80
39	530
40	240
41	580
42	360
43	990
44	210
45	80
49	30
50	100
51	170
52	120
53	470
54	510
55	840
56	330
57	340
58	220
59	130
61	20
62	20
63	60
64	30
65	160
66	110
67	470
68	320
69	660
70	150
71	520
72	70
73	20
74	20
75	60
76	270
77	270
78	330
80	630
82	999
84	240
85	210
86	60
87	20
88	30
89	30
90	20
91	229
92	50
93	270
94	130
95	530
96	150
97	590
98	360
99	100
100	30
101	20
102	20
103	30
104	15
105	80
106	40
107	390
108	160
109	600
110	470
111	350
112	80
113	40
114	20
115	40
116	40
117	50
122	140
123	200
124	120
125	470
126	140
127	40
128	330
129	40
131	40
132	20
133	60
134	80
135	460
136	70
137	130
138	40
139	140
140	50
147	50
150	640
152	140
153	720
154	540
155	60
159	30
165	40
166	30
167	570
168	180
169	20
177	50
192	60
195	80
210	90
211	30
