Mass Spectrum: 1,2,3-Cyclopentanetriol
Formula: C5H10O3
CAS: 56772-27-1
Molecular weight: 118
m/z	intensity
39	115
40	23
41	140
42	92
43	253
44	854
45	95
46	7
47	55
50	8
51	13
52	5
53	75
54	203
55	196
56	158
57	999
58	234
59	21
60	247
61	69
62	8
69	57
70	18
71	108
72	544
73	102
74	63
75	8
80	16
81	386
82	761
83	70
84	7
85	8
87	18
88	16
89	8
99	29
100	576
101	41
102	7
118	7
