Mass Spectrum: Methyl 2-hydroxypentacos-2-enoate, TMS derivative
Formula: C29H58O3Si
CAS: 56784-06-6
Molecular weight: 482
m/z	intensity
41	360
42	90
43	460
44	180
45	30
51	50
53	50
54	60
55	440
56	120
57	480
58	40
59	80
60	20
61	20
67	210
68	90
69	430
70	120
71	270
72	40
73	999
74	90
75	240
76	50
77	80
78	20
79	60
80	20
81	240
82	120
83	340
84	80
85	130
89	240
91	120
93	50
94	40
95	270
96	120
97	270
98	80
99	50
101	50
103	160
105	70
109	140
110	60
111	180
112	20
113	60
115	40
117	30
119	20
121	20
123	90
124	20
125	50
129	280
130	20
131	70
133	40
135	40
137	20
141	60
143	20
145	60
147	70
149	140
155	50
159	110
423	400
424	120
425	60
426	20
439	30
440	20
455	20
467	300
468	80
469	40
482	20
