Mass Spectrum: Tricyclo[3.3.1.1(3,7)]decane-2,6-dione, 4-acetyl-
Formula: C12H14O3
CAS: 56781-92-1
Molecular weight: 206
m/z	intensity
41	228
43	999
51	52
53	82
55	189
65	73
66	51
67	70
69	62
77	123
79	643
80	59
84	329
91	172
94	120
95	380
96	354
107	418
108	146
109	51
118	56
120	68
135	128
136	124
146	89
163	106
164	189
178	95
206	722
207	95
