Mass Spectrum: Pregnan-20-one, 3-(acetyloxy)-5,6-epoxy-6-methyl-, cyclic 20-(1,2-ethanediyl acetal), (3.beta.,5.beta.,6.beta.)-
Formula: C26H40O5
CAS: 56784-25-9
Molecular weight: 432
m/z	intensity
60	16
61	2
62	0
63	3
64	1
65	16
66	7
67	37
68	15
69	20
70	2
71	21
72	1
73	3
74	0
75	1
76	1
77	38
78	10
79	46
80	8
81	43
82	7
83	6
84	4
85	11
86	5
87	999
88	45
89	7
90	2
91	59
92	13
93	47
94	15
95	32
96	4
97	9
98	4
99	39
100	3
101	1
102	1
103	6
104	3
105	38
106	8
107	34
108	13
109	20
110	11
111	4
112	2
113	5
114	1
115	18
116	5
117	14
118	6
119	24
120	12
121	20
122	9
123	7
124	1
125	2
126	1
127	4
128	11
129	12
130	6
131	14
132	9
133	26
134	8
135	18
136	5
137	8
138	1
139	2
140	0
141	8
142	7
143	11
144	3
145	13
146	3
147	11
148	3
149	8
150	12
151	5
152	2
153	3
154	2
155	9
156	4
157	13
158	3
159	12
160	3
161	9
162	4
163	3
164	1
165	4
166	1
167	2
168	1
169	4
170	2
171	8
172	2
173	7
174	2
175	7
176	2
177	4
178	2
179	2
180	0
181	2
182	0
183	3
184	1
185	4
186	1
187	4
188	1
189	3
190	1
191	2
192	1
193	8
194	1
195	2
196	0
197	2
198	1
199	3
200	1
201	3
202	0
203	2
204	0
205	1
206	0
207	1
208	0
209	1
210	0
211	2
212	0
213	2
214	0
215	2
216	0
217	1
218	0
219	1
220	1
221	1
222	0
223	1
224	0
225	4
226	1
227	4
228	1
229	1
230	0
231	5
232	1
233	1
234	0
235	0
236	0
237	3
238	0
239	2
240	0
241	1
242	0
243	3
244	1
245	1
246	5
247	1
248	0
249	0
250	0
251	1
252	0
253	1
254	0
255	1
256	1
257	1
258	1
259	1
260	0
261	1
262	0
263	0
265	0
266	0
267	6
268	1
269	1
270	5
271	1
272	0
273	0
274	4
275	1
276	0
277	1
278	0
279	0
281	0
283	1
284	1
285	20
286	4
287	1
292	1
293	0
294	0
295	6
296	1
297	0
298	0
299	1
300	0
301	0
308	0
309	1
310	15
311	4
312	2
313	6
314	3
315	0
318	1
326	1
327	1
328	39
329	12
330	2
339	6
340	1
341	0
352	0
354	22
355	7
356	2
357	18
358	5
359	1
370	1
371	0
372	7
373	2
374	0
388	3
389	1
417	21
418	5
432	2
