Mass Spectrum: Iron, dicarbonyl(.eta.5-2,4-cyclopentadien-1-yl)(nonamethyltetrasilanyl)-
Formula: C16H32FeO2Si4
CAS: 56784-38-4
Molecular weight: 424
m/z	intensity
73	999
115	46
121	48
131	53
173	336
179	26
189	19
207	24
235	97
247	243
323	7
366	1
381	14
396	1
409	7
424	14
