Mass Spectrum: Pregnan-20-one, 3-(acetyloxy)-5,6-epoxy-, cyclic 20-(1,2-ethanediyl acetal), (3.beta.,5.alpha.,6.alpha.)-
Formula: C25H38O5
CAS: 56784-22-6
Molecular weight: 418
m/z	intensity
60	15
61	2
62	0
63	3
64	1
65	17
66	7
67	38
68	10
69	16
70	1
71	15
72	1
73	3
74	0
75	1
76	1
77	39
78	11
79	53
80	9
81	36
82	5
83	6
84	5
85	11
86	5
87	999
88	46
89	8
90	1
91	59
92	12
93	41
94	18
95	32
96	4
97	4
98	4
99	36
100	3
101	1
102	2
103	6
104	5
105	40
106	9
107	27
108	9
109	10
110	2
111	2
112	1
113	8
114	1
115	17
116	5
117	15
118	11
119	21
120	14
121	20
122	8
123	10
124	1
125	1
126	1
127	5
128	13
129	14
130	4
131	14
132	4
133	18
134	6
135	10
136	8
137	4
138	1
139	2
140	0
141	9
142	6
143	13
144	4
145	14
146	3
147	10
148	2
149	8
150	1
151	1
152	2
153	2
154	1
155	8
156	2
157	11
158	4
159	12
160	3
161	8
162	2
163	3
164	2
165	3
166	1
167	2
168	1
169	3
170	1
171	4
172	1
173	5
174	1
175	5
176	1
177	2
178	1
179	2
180	0
181	2
182	1
183	3
184	1
185	3
186	1
187	2
188	0
189	1
190	0
191	1
192	1
193	1
194	0
195	2
196	0
197	3
198	0
199	3
200	1
201	2
202	1
203	2
204	0
205	1
206	0
207	1
208	0
209	2
210	0
211	5
212	2
213	3
214	0
215	2
216	0
217	0
218	0
219	0
220	0
221	2
222	0
223	1
224	0
225	2
226	1
227	2
228	1
229	4
230	0
231	1
232	0
233	1
234	0
235	0
236	0
237	1
238	0
239	1
240	0
241	1
242	0
243	2
244	2
245	1
249	0
251	1
252	0
253	3
254	1
255	2
256	1
257	1
258	0
259	0
260	0
261	4
262	0
263	1
264	0
265	0
267	1
268	1
269	2
270	2
271	3
272	1
273	0
278	0
279	1
280	0
281	6
282	1
283	1
285	4
286	4
287	1
294	1
295	1
296	12
297	7
298	7
299	13
300	3
301	0
310	1
311	1
312	9
313	4
314	36
315	10
316	1
317	0
325	5
326	2
327	2
328	1
329	2
330	1
331	0
338	0
340	13
341	6
342	3
343	18
344	5
345	1
356	2
357	1
358	9
359	2
374	1
385	0
387	1
400	0
401	0
403	22
404	6
418	0
