Mass Spectrum: Carbonic acid, methyl 4-oxotricyclo[3.3.1.1(3,7)]dec-2-yl ester, (1.alpha.,2.alpha.,3.beta.,5.alpha.,7.beta.)-
Formula: C12H16O4
CAS: 56781-95-4
Molecular weight: 224
m/z	intensity
40	355
41	275
43	58
44	300
53	95
55	138
59	138
65	55
66	128
67	165
77	155
78	525
79	999
80	148
81	95
91	260
92	280
93	140
104	93
105	138
106	103
107	73
119	75
120	713
121	213
148	600
149	165
164	55
165	115
224	253
