Mass Spectrum: Pregnan-20-one, 3-(acetyloxy)-5,6-epoxy-6-methyl-, cyclic 20-(1,2-ethanediyl acetal), (3.beta.,5.alpha.,6.alpha.)-
Formula: C26H40O5
CAS: 56784-23-7
Molecular weight: 432
m/z	intensity
59	3
60	32
61	1
62	1
63	4
64	2
65	20
66	8
67	44
68	49
69	25
70	2
71	20
72	1
73	3
74	0
75	2
76	1
77	46
78	12
79	54
80	10
81	55
82	10
83	9
84	4
85	14
86	6
87	999
88	46
89	8
90	2
91	69
92	13
93	45
94	14
95	38
96	6
97	7
98	5
99	35
100	2
101	1
102	2
103	8
104	5
105	44
106	9
107	35
108	16
109	41
110	9
111	4
112	2
113	7
114	1
115	21
116	7
117	17
118	7
119	29
120	8
121	20
122	17
123	10
124	2
125	2
126	2
127	6
128	17
129	18
130	8
131	18
132	10
133	26
134	8
135	14
136	8
137	12
138	2
139	3
140	0
141	14
142	11
143	16
144	5
145	16
146	4
147	13
148	3
149	9
150	2
151	3
152	3
153	4
154	3
155	13
156	7
157	18
158	5
159	16
160	4
161	12
162	6
163	4
164	1
165	4
166	2
167	3
168	1
169	6
170	2
171	11
172	4
173	11
174	4
175	10
176	3
177	5
178	3
179	2
180	1
181	3
182	1
183	3
184	1
185	5
186	2
187	6
188	2
189	5
190	1
191	2
192	1
193	1
194	1
195	2
196	1
197	2
198	1
199	3
200	1
201	6
202	2
203	4
204	1
205	1
206	0
207	1
208	0
209	2
210	1
211	3
212	1
213	3
214	1
215	6
216	1
217	1
218	2
219	1
220	15
221	3
223	1
224	0
225	5
226	2
227	3
228	1
229	6
230	2
231	8
232	1
233	1
234	0
235	0
236	0
237	1
238	0
239	3
240	1
241	2
242	1
243	7
244	7
245	12
246	8
247	6
248	1
251	1
252	1
253	1
255	1
256	2
257	5
258	8
259	3
261	1
265	1
266	0
267	4
268	1
269	1
270	1
271	2
272	1
273	0
274	3
275	2
276	0
277	2
278	0
279	1
281	1
282	1
283	1
284	1
285	10
286	2
287	0
292	1
294	1
295	11
296	3
297	1
299	1
300	4
301	0
308	1
309	1
310	30
311	8
312	3
313	8
314	2
316	0
318	1
324	0
325	0
326	1
327	1
328	19
329	5
339	9
340	2
341	0
354	41
355	12
357	33
358	9
372	1
373	1
387	1
417	5
418	1
