Mass Spectrum: Pregnan-20-one, 3-(acetyloxy)-5,6-epoxy-16-methyl-, cyclic 20-(1,2-ethanediyl acetal), (3.beta.,5.alpha.,6.alpha.,16.alpha.)-
Formula: C26H40O5
CAS: 56784-24-8
Molecular weight: 432
m/z	intensity
58	12
59	42
60	112
61	7
62	5
63	18
64	8
65	69
66	37
67	162
68	33
69	75
70	10
71	13
72	10
73	9
74	3
75	7
76	5
77	177
78	47
79	226
80	37
81	116
82	31
83	75
84	10
85	135
86	15
87	999
88	50
89	18
90	6
91	237
92	45
93	167
94	79
95	138
96	19
97	25
98	89
99	217
100	18
101	7
102	8
103	28
104	22
105	152
106	35
107	129
108	68
109	73
110	17
111	18
112	35
113	44
114	7
115	63
116	27
117	67
118	79
119	108
120	43
121	117
122	68
123	83
124	10
125	13
126	7
127	29
128	73
129	73
130	22
131	57
132	19
133	74
134	28
135	38
136	76
137	28
138	7
139	11
140	7
141	60
142	40
143	74
144	24
145	57
146	19
147	68
148	21
149	56
150	10
151	16
152	16
153	16
154	10
155	33
156	18
157	51
158	23
159	53
160	14
161	52
162	24
163	36
164	10
165	24
166	8
167	15
168	6
169	17
170	7
171	23
172	13
173	36
174	17
175	38
176	10
177	15
178	10
179	11
180	4
181	13
182	3
183	15
184	8
185	16
186	7
187	19
188	11
189	16
190	9
191	18
192	7
193	8
194	3
195	13
196	7
197	17
198	7
199	13
200	5
201	18
202	7
203	8
204	3
205	11
206	4
207	7
208	4
209	15
210	3
211	29
212	8
213	13
214	3
215	23
216	9
217	7
218	1
219	4
220	3
221	6
222	4
223	6
224	3
225	13
226	16
227	11
228	5
229	43
230	10
231	16
232	3
233	3
234	1
235	8
236	3
237	7
238	2
239	6
240	3
241	12
242	5
243	23
244	35
245	7
246	3
247	8
248	3
249	3
250	3
251	7
252	6
253	8
254	3
255	14
256	7
257	11
258	3
259	4
260	2
261	4
262	3
263	4
264	3
265	7
266	3
267	25
268	17
269	20
270	19
271	15
272	2
273	7
274	5
275	12
276	1
277	8
278	1
279	1
281	11
282	8
283	12
284	23
285	30
286	9
292	7
293	3
294	7
295	47
296	13
297	7
298	7
299	45
300	43
301	9
308	9
309	15
310	152
311	47
312	20
313	130
314	34
315	5
324	20
325	5
326	7
327	35
328	298
329	78
330	13
339	15
340	1
341	1
342	30
343	11
344	3
352	3
354	53
355	17
357	37
358	10
370	25
371	10
372	12
373	12
387	18
388	14
402	5
417	3
