Mass Spectrum: Iron, tricarbonyl[(1,2,3,4-.eta.)-4a,4b,6,7,8,9,9a,9b-octahydro-5H-benzo[3,4]cyclobuta[1,2]cycloheptene]-
Formula: C16H18FeO3
CAS: 56784-34-0
Molecular weight: 314
m/z	intensity
56	531
91	999
105	510
115	680
117	510
119	446
128	553
129	936
131	702
141	510
142	340
143	404
144	468
145	361
146	170
147	276
148	404
149	191
172	702
174	361
222	127
224	191
226	468
228	851
230	361
256	446
258	510
286	276
314	276
