Mass Spectrum: cis,cis,cis-7,10,13-Hexadecatrienal
Formula: C16H26O
CAS: 56797-43-4
Molecular weight: 234
m/z	intensity
41	743
42	73
43	292
44	80
53	156
54	150
55	518
56	74
57	201
65	102
66	134
67	878
68	192
69	287
70	83
71	94
73	42
77	234
78	151
79	999
80	448
81	410
82	135
83	100
84	84
85	53
91	351
92	101
93	500
94	176
95	476
96	114
97	87
98	213
105	151
107	157
108	288
109	96
117	74
119	82
120	52
121	133
122	89
135	78
136	49
137	60
145	29
147	37
162	21
172	17
177	18
234	13
