Mass Spectrum: 1H-1,2,4-Triazole-3-carboxaldehyde, 5-methyl-
Formula: C4H5N3O
CAS: 56804-98-9
Molecular weight: 111
m/z	intensity
51	140
52	120
53	90
54	90
55	450
56	999
57	260
69	160
82	70
83	690
84	60
110	50
111	350
112	50
