Mass Spectrum: Hexanal, 3-(hydroxymethyl)-4-methyl-
Formula: C8H16O2
CAS: 56805-30-2
Molecular weight: 144
m/z	intensity
15	10
17	20
18	110
19	5
26	10
27	120
28	40
29	300
30	10
31	60
32	5
38	5
39	120
40	20
41	680
42	165
43	140
44	25
45	35
47	15
50	5
51	10
52	5
53	40
54	25
55	420
56	370
57	530
58	125
59	15
60	5
65	10
66	3
67	65
68	35
69	410
70	999
71	120
72	10
73	20
77	5
79	10
81	45
82	20
83	145
84	15
85	60
86	20
87	15
91	3
93	5
95	15
96	35
97	20
98	110
99	10
100	15
108	5
109	15
111	5
113	15
114	20
125	3
126	30
127	65
128	5
143	10
145	8
