Mass Spectrum: 7H-Purine-8-carboxaldehyde
Formula: C6H4N4O
CAS: 56805-26-6
Molecular weight: 148
m/z	intensity
55	90
57	60
64	110
65	350
66	999
69	50
77	60
78	60
92	260
93	310
94	60
119	50
120	500
121	50
148	680
149	90
