Mass Spectrum: 4-Imidazolidinone, 5-(1-methylethyl)-2-thioxo-
Formula: C6H10N2OS
CAS: 56805-20-0
Molecular weight: 158
m/z	intensity
41	320
42	68
43	330
55	96
56	272
57	184
59	97
60	204
84	88
86	88
88	39
99	126
115	58
116	999
117	88
118	58
158	642
159	78
160	36
