Mass Spectrum: L-Valine, N-[N-(trifluoroacetyl)glycyl]-, methyl ester
Formula: C10H15F3N2O4
CAS: 5680-78-4
Molecular weight: 284
m/z	intensity
15	51
18	12
26	5
27	52
28	147
29	56
30	104
31	18
32	6
33	37
39	45
40	10
41	91
42	48
43	89
44	30
45	14
46	7
50	9
51	8
53	12
54	16
55	207
56	122
57	50
58	51
59	93
60	25
68	10
69	169
70	53
71	27
72	999
73	80
74	16
76	7
78	87
79	10
82	23
83	48
84	21
85	14
86	10
87	18
88	251
89	34
90	11
96	6
97	29
98	104
99	15
101	13
106	11
107	5
111	5
113	7
114	93
115	22
116	15
126	233
127	77
130	147
131	12
139	14
140	5
153	5
154	12
155	28
158	8
171	10
177	5
182	14
183	7
192	33
199	11
210	111
211	11
215	5
224	6
225	639
226	61
227	5
238	6
243	18
253	5
284	25
