Mass Spectrum: Furan, 2,3-dihydro-3-(1-methylpropyl)-
Formula: C8H14O
CAS: 56805-32-4
Molecular weight: 126
m/z	intensity
15	5
17	5
18	30
26	5
27	60
28	15
29	90
30	2
31	5
32	5
38	5
39	95
40	15
41	360
42	30
43	30
45	5
50	5
51	10
52	5
53	20
54	5
55	40
56	30
57	50
58	5
63	2
65	5
66	2
67	15
68	170
69	999
70	70
71	5
77	5
79	5
81	5
83	10
85	5
91	2
95	10
96	2
97	10
98	3
111	3
126	135
127	15
