Mass Spectrum: 2-Oxazolidinone, 3-cyclohexyl-5-phenyl-
Formula: C15H19NO2
CAS: 56805-21-1
Molecular weight: 245
m/z	intensity
41	420
54	240
55	590
67	100
68	110
77	130
79	60
81	90
82	130
83	220
91	460
92	110
103	90
104	999
105	130
110	480
118	150
120	240
146	90
158	330
163	120
164	380
200	150
201	60
202	200
245	680
