Mass Spectrum: L-Valine, N-(1-methylethyl)-, 1-methylethyl ester
Formula: C11H23NO2
CAS: 56804-97-8
Molecular weight: 201
m/z	intensity
70	820
71	160
72	700
73	260
74	700
82	150
87	300
96	120
98	960
99	170
102	150
112	350
113	140
114	999
115	980
116	980
117	200
144	480
145	100
158	820
159	140
186	260
201	190
