Mass Spectrum: 4-Imidazolidinone, 5-(2-methylpropyl)-2-thioxo-
Formula: C7H12N2OS
CAS: 56805-19-7
Molecular weight: 172
m/z	intensity
41	323
42	100
43	700
44	57
53	43
54	33
55	71
56	43
57	175
58	29
59	95
60	262
68	29
69	52
70	129
84	38
86	105
87	29
88	29
97	38
98	29
99	52
101	57
115	176
116	999
117	62
118	48
128	48
129	347
130	43
172	742
173	67
174	38
