Mass Spectrum: Dodecanoic acid, 11-amino-, methyl ester
Formula: C13H27NO2
CAS: 56817-92-6
Molecular weight: 229
m/z	intensity
41	38
44	999
55	42
56	25
57	12
59	15
69	20
70	12
74	15
156	17
182	23
198	32
214	39
228	7
229	10
230	8
