Mass Spectrum: 1,2,3,4,10,10-Hexachloro-6,7-epoxy-1,4,4a,5,6,7,8,8a-octahydro-exo-1,4-endo-5,8-dimethanonaphthalene
Formula: C12H8Cl6O
CAS: 56816-04-7
Molecular weight: 378
m/z	intensity
15	16
17	29
18	63
26	17
27	252
28	112
29	100
31	21
32	29
35	13
36	15
38	17
39	326
40	42
41	65
49	12
50	40
51	136
52	74
53	242
54	127
55	36
57	31
62	22
63	62
65	70
66	59
67	30
68	20
69	13
73	45
74	34
75	53
76	11
77	368
78	83
79	999
80	135
81	429
82	407
83	21
84	16
85	26
86	30
87	22
89	19
91	22
96	12
97	33
98	20
99	29
101	17
107	83
108	136
109	47
110	13
111	23
113	37
115	21
117	22
119	18
120	12
121	34
123	20
125	12
131	13
132	16
133	31
134	10
135	17
137	23
138	25
139	42
141	24
143	33
145	15
147	39
149	30
157	16
159	12
160	16
165	11
167	25
169	22
170	17
171	17
172	23
173	60
174	20
175	30
181	17
182	10
183	31
184	12
185	16
186	10
191	53
193	50
194	14
195	28
196	12
201	17
202	11
203	20
204	23
205	11
206	13
207	42
208	16
209	55
210	14
211	16
214	10
216	17
217	23
218	12
219	25
220	10
226	10
227	12
228	15
229	11
230	14
235	44
236	19
237	76
238	16
239	52
240	19
241	36
243	61
244	21
245	55
246	23
247	16
251	17
253	15
255	12
261	69
263	97
264	12
265	70
267	19
272	10
273	11
274	11
275	20
277	55
279	51
280	10
281	34
283	10
343	15
345	17
347	14
380	15
382	12
