Mass Spectrum: Dipyrrolo[1,2-a:-1',2'-d]pyrazine-5,10-dione, octahydro-2,7-dihydroxy-, 2TMS derivative
Formula: C16H30N2O4Si2
CAS: 56817-96-0
Molecular weight: 370
m/z	intensity
31	12
39	24
40	13
41	238
42	44
43	43
44	15
45	109
47	90
53	13
54	23
55	136
56	33
58	14
59	203
60	20
61	92
66	17
67	55
68	607
69	57
72	26
73	999
74	91
75	538
76	44
77	27
80	25
81	13
82	53
84	28
85	13
86	18
87	20
89	25
94	50
95	28
98	16
99	29
100	40
101	100
102	26
103	12
112	25
113	18
114	15
115	30
116	80
117	26
122	58
123	13
124	16
126	13
127	13
128	31
129	89
130	26
133	19
134	12
136	37
140	19
141	16
142	260
143	44
144	21
147	13
154	12
155	15
156	630
157	113
158	761
159	96
160	36
164	18
168	12
170	173
171	46
183	12
184	115
185	23
186	23
190	22
197	15
198	14
211	18
212	600
213	105
214	28
225	21
226	84
227	18
230	53
231	12
237	12
252	32
253	23
254	19
265	25
279	20
280	100
281	46
286	16
314	25
315	16
327	115
328	32
329	13
341	61
342	23
353	12
355	838
356	230
357	84
358	17
369	12
370	769
371	193
372	76
373	16
