Mass Spectrum: Bicyclo[3.3.1]nonane-2,6-dione bis(ethylene ketal)
Formula: C13H20O4
CAS: 56813-64-0
Molecular weight: 240
m/z	intensity
20	0
26	6
27	68
28	33
29	35
30	3
31	7
32	1
33	0
37	1
38	3
39	56
40	16
41	86
42	127
43	67
44	8
45	40
46	3
47	3
48	2
49	0
50	5
51	13
52	11
53	41
54	11
55	272
56	16
57	7
58	1
59	3
60	1
61	3
62	3
63	6
64	2
65	18
66	11
67	40
68	22
69	15
70	6
71	3
72	0
73	17
74	1
75	1
76	1
77	32
78	11
79	33
80	8
81	21
82	6
83	16
84	3
85	2
86	231
87	26
88	2
89	6
90	4
91	20
92	6
93	11
94	6
95	23
96	8
97	7
98	4
99	999
100	77
101	8
102	1
103	2
104	2
105	5
106	2
107	11
108	5
109	9
110	4
111	6
112	67
113	31
114	4
115	3
116	1
117	2
118	9
119	3
120	2
121	6
122	4
123	8
124	8
125	64
126	12
127	6
128	1
129	1
130	1
131	2
132	2
133	5
134	2
135	4
136	1
137	6
138	5
139	18
140	6
141	8
142	1
143	0
144	0
145	0
146	7
147	1
148	2
149	4
150	4
151	10
152	6
153	10
154	6
155	7
156	1
157	1
158	0
159	2
160	0
162	2
163	1
164	0
165	4
166	2
167	12
168	16
169	6
170	1
172	0
176	1
177	3
178	6
179	137
180	23
181	7
182	1
183	13
184	1
185	1
192	1
193	3
194	2
195	80
196	14
197	145
198	18
199	2
208	0
209	2
210	5
211	3
212	5
213	0
238	5
239	2
240	178
241	24
242	3
243	0
