Mass Spectrum: Bicyclo[2.2.1]heptan-2-ol, 3-chloro-
Formula: C7H11ClO
CAS: 56816-12-7
Molecular weight: 146
m/z	intensity
34	25
35	120
36	30
37	70
38	410
39	100
41	50
42	115
43	175
47	40
48	70
49	50
50	120
51	50
52	170
53	130
54	160
55	35
56	290
64	180
65	940
66	999
67	100
68	50
69	40
70	30
72	20
73	10
74	50
76	130
77	60
78	340
79	130
80	260
81	35
82	200
83	70
87	20
88	30
89	70
90	120
91	220
92	320
93	40
94	70
100	220
101	50
102	120
103	20
104	25
109	30
110	290
111	60
113	30
115	20
128	195
129	25
130	70
131	10
