Mass Spectrum: 4-Methoxyphenylketene bis(trimethylsilyl) acetal
Formula: C15H26O3Si2
CAS: 56817-43-7
Molecular weight: 310
m/z	intensity
43	100
45	350
47	100
59	314
73	999
74	135
75	500
77	342
89	485
90	114
91	121
93	271
95	100
120	400
121	100
133	107
147	500
148	964
149	135
179	121
310	271
