Mass Spectrum: Cyclohexene, 5-methyl-3-(1-methylethenyl)-, trans-(-)-
Formula: C10H16
CAS: 56816-08-1
Molecular weight: 136
m/z	intensity
15	24
27	167
29	126
38	26
39	274
40	55
41	303
42	36
43	233
50	24
51	85
52	53
53	155
54	36
55	206
56	19
58	29
63	38
65	97
66	68
67	194
68	133
69	46
75	29
77	296
78	77
79	791
80	155
81	145
82	55
91	296
92	145
93	999
94	225
95	123
96	24
97	17
103	24
105	126
106	34
107	500
108	104
109	24
115	38
117	41
119	77
120	19
121	684
122	75
134	17
135	26
136	791
137	94
