Mass Spectrum: Thiophene, 2-(2-ethylbutyl)-
Formula: C10H16S
CAS: 5682-00-8
Molecular weight: 168
m/z	intensity
37	4
38	14
39	109
40	9
41	77
42	11
43	226
44	8
45	126
46	4
47	11
49	1
50	12
51	25
52	10
53	66
54	5
55	41
56	4
57	11
58	21
59	8
60	2
61	2
62	6
63	17
64	3
65	17
66	6
67	6
68	2
69	23
70	11
71	62
72	4
73	2
74	2
75	2
76	2
77	17
78	6
79	10
80	1
81	3
82	6
83	3
84	17
85	16
86	2
87	1
88	1
89	2
90	1
91	9
92	1
93	3
94	1
95	7
96	11
97	999
98	464
99	75
100	21
101	2
102	1
103	3
104	1
105	2
106	1
107	1
108	3
109	9
110	13
111	12
112	2
113	2
114	1
115	1
116	1
117	1
121	5
122	2
123	22
124	5
125	6
126	3
127	1
128	1
134	2
136	1
137	4
138	3
139	6
140	1
141	1
151	1
153	1
154	1
156	1
166	1
167	1
168	254
169	26
170	12
171	1
