Mass Spectrum: 3-Penten-2-one, 3-bromo-4-methyl-
Formula: C6H9BrO
CAS: 5682-80-4
Molecular weight: 176
m/z	intensity
25	2
26	20
27	164
28	19
29	37
30	1
31	2
36	5
37	12
38	31
39	125
40	14
41	56
42	18
43	999
44	20
45	2
47	1
49	6
50	33
51	45
52	14
53	360
54	29
55	159
56	7
57	1
58	13
59	1
61	2
62	4
63	7
64	1
65	10
66	6
67	44
68	2
69	6
70	0
71	1
74	1
75	0
77	13
78	3
79	14
80	6
81	4
82	16
83	36
84	2
91	0
93	3
95	7
96	7
97	19
98	6
99	1
105	2
106	0
107	4
109	2
116	0
117	1
118	0
119	2
120	0
121	2
123	1
127	1
128	1
133	64
134	16
135	59
136	16
137	0
158	1
160	1
161	229
162	12
163	223
164	12
165	0
173	0
174	2
175	1
176	175
177	13
178	164
179	11
180	1
