Mass Spectrum: cis,cis-7,10,-Hexadecadienal
Formula: C16H28O
CAS: 56829-23-3
Molecular weight: 236
m/z	intensity
41	653
42	73
43	228
53	148
54	428
55	634
56	91
57	191
65	85
66	102
67	999
68	389
69	352
70	147
71	111
77	173
78	67
79	529
80	287
81	916
82	394
83	255
84	222
85	64
91	263
92	93
93	264
94	160
95	514
96	316
97	220
98	527
99	87
105	138
107	94
108	89
109	213
110	164
111	94
112	111
120	87
121	91
122	51
123	103
124	51
134	63
135	55
137	77
138	53
147	47
151	58
152	49
165	52
179	26
181	23
193	26
236	41
