Mass Spectrum: 2-Cyclopenten-1-one, 3-ethyl-
Formula: C7H10O
CAS: 5682-69-9
Molecular weight: 110
m/z	intensity
26	50
27	460
29	41
31	69
32	114
38	64
39	429
40	3
41	282
42	61
44	46
45	20
50	53
51	100
52	95
53	740
54	261
55	128
56	47
57	75
65	87
67	628
68	70
73	26
79	124
81	999
82	129
91	21
95	80
109	137
110	837
