Mass Spectrum: Carbamic acid, [(2,4,6-trimethylphenyl)sulfonyl]-, 1,1-dimethylethyl ester
Formula: C14H21NO4S
CAS: 56830-76-3
Molecular weight: 299
m/z	intensity
41	500
43	266
44	147
55	107
56	136
57	494
59	434
77	147
91	273
103	167
115	113
117	333
118	535
119	999
120	167
134	126
135	126
136	334
179	267
183	167
225	167
243	176
