Mass Spectrum: Tricyclo[3.3.1.1(3,7)]decane-2-carboxylic acid, 4,10-dihydroxy-, methyl ester
Formula: C12H18O4
CAS: 56830-78-5
Molecular weight: 226
m/z	intensity
40	58
41	504
43	117
51	117
53	175
54	266
55	226
57	204
65	146
66	146
67	248
77	358
78	328
79	803
80	226
81	241
82	80
83	117
91	999
92	416
93	274
94	157
95	245
96	124
104	409
105	139
106	73
107	168
108	106
109	91
117	708
118	102
119	350
120	102
121	95
131	255
132	657
133	110
148	263
149	95
150	883
151	120
176	562
177	102
194	95
208	153
226	80
