Mass Spectrum: N,N-Dimethyl-2-pyridinamine
Formula: C7H10N2
CAS: 5683-33-0
Molecular weight: 122
m/z	intensity
14	3
15	36
25	1
26	17
27	53
28	38
29	1
30	10
32	5
34	1
37	16
38	35
39	86
40	26
41	31
42	147
43	31
44	424
45	10
46	3
48	2
49	11
50	62
51	216
52	243
53	213
54	18
55	9
56	2
57	2
59	2
60	9
61	39
62	3
63	9
64	33
65	26
66	30
67	23
68	15
69	12
70	2
71	3
72	1
73	1
74	2
75	13
76	21
77	12
78	700
79	600
80	290
81	22
82	1
87	1
88	1
90	1
91	9
92	40
93	999
94	117
95	17
96	1
103	1
104	13
105	30
106	15
107	843
108	82
109	4
117	1
118	1
119	18
120	6
121	157
122	872
123	78
124	4
