Mass Spectrum: 4-Imidazolidinone, 5-(1-methylpropyl)-2-thioxo-
Formula: C7H12N2OS
CAS: 56830-83-2
Molecular weight: 172
m/z	intensity
41	232
42	31
43	40
54	40
55	58
56	54
57	326
59	36
60	89
69	31
70	31
84	36
86	45
99	49
115	27
116	999
117	49
118	36
143	45
172	437
173	40
174	27
