Mass Spectrum: Ethanone, 2-methoxy-1-(1-methoxycyclohexyl)-
Formula: C10H18O3
CAS: 56830-21-8
Molecular weight: 186
m/z	intensity
41	130
45	520
53	50
55	100
67	50
71	100
81	580
113	999
