Mass Spectrum: Propanoic acid, 3-(trimethylsilyl)-
Formula: C6H14O2Si
CAS: 5683-30-7
Molecular weight: 146
m/z	intensity
71	20
72	70
73	950
74	200
75	999
76	240
77	180
85	10
86	100
87	30
91	100
101	50
103	30
115	30
117	10
131	850
132	120
133	40
