Mass Spectrum: 3(Z)-Pentenimidic acid, 3-methyl-N-phenyl-, methyl ester
Formula: C13H17NO
CAS: 56830-20-7
Molecular weight: 203
m/z	intensity
51	210
69	250
77	330
91	290
93	120
110	250
111	250
119	999
134	460
148	10
170	30
172	40
174	30
188	630
202	430
203	420
