Mass Spectrum: 2-Pentanone, 1,1-dimethoxy-3-methyl-
Formula: C8H16O3
CAS: 56830-14-9
Molecular weight: 160
m/z	intensity
55	250
57	60
67	120
68	160
69	250
71	160
75	999
85	40
96	90
101	30
114	250
129	30
