Mass Spectrum: 3-Pentenimidic acid, 3-methyl-N-phenyl-, methyl ester, (3E)-
Formula: C13H17NO
CAS: 56830-19-4
Molecular weight: 203
m/z	intensity
51	180
69	220
77	270
91	270
93	90
110	210
111	210
119	999
134	410
148	110
170	30
172	50
174	30
188	710
202	440
203	470
