Mass Spectrum: Phosphoramidic acid, bis(4-methylphenyl) ester
Formula: C14H16NO3P
CAS: 56830-89-8
Molecular weight: 277
m/z	intensity
65	120
77	80
79	160
91	520
92	80
107	999
108	100
180	100
181	20
186	550
187	60
