Mass Spectrum: 2-Pentenimidic acid, 3,4-dimethyl-N-phenyl-, methyl ester, (2E)-
Formula: C14H19NO
CAS: 56830-11-6
Molecular weight: 217
m/z	intensity
51	440
53	170
55	510
65	190
66	200
67	280
73	100
77	999
81	180
91	490
93	620
104	120
109	160
110	80
111	170
117	150
119	420
124	490
125	960
130	130
131	110
134	130
142	180
143	130
144	160
159	150
170	210
171	100
174	530
186	200
202	560
216	160
217	930
