Mass Spectrum: 2-Pentanone, 1,3-dimethoxy-3-methyl-
Formula: C8H16O3
CAS: 56830-17-2
Molecular weight: 160
m/z	intensity
55	750
56	70
57	70
59	70
71	50
75	200
83	200
87	999
98	40
115	40
128	30
129	20
131	15
160	12
