Mass Spectrum: 5,3,7-[1,2,3]Propanetriylbenzofuran-2,4-dione, hexahydro-
Formula: C11H12O3
CAS: 56830-79-6
Molecular weight: 192
m/z	intensity
41	182
51	68
53	82
55	120
57	75
65	68
66	168
67	62
77	185
78	356
79	999
80	99
91	329
92	644
93	82
95	89
105	103
106	82
120	182
130	62
148	171
192	411
193	55
