Mass Spectrum: Benzenamine, N-[2-methoxy-1-(methoxymethyl)-2-methylpropylidene]-
Formula: C13H19NO2
CAS: 56830-06-9
Molecular weight: 221
m/z	intensity
45	830
51	130
73	999
77	280
104	110
118	80
119	70
144	180
148	420
189	80
191	140
221	50
