Mass Spectrum: 9-Octadecenoic acid (Z)-, 2-(octadecyloxy)ethyl ester
Formula: C38H74O3
CAS: 56847-04-2
Molecular weight: 578
m/z	intensity
26	9
27	59
28	50
29	166
30	9
31	12
32	9
33	6
36	7
37	7
38	6
39	51
40	15
41	431
42	121
43	833
44	53
45	72
46	6
47	8
50	7
51	9
52	6
53	37
54	166
55	848
56	265
57	999
58	51
59	25
60	19
61	11
62	5
63	30
65	15
66	30
67	310
68	242
69	719
70	227
71	568
72	40
73	33
74	18
75	12
76	6
77	20
78	15
79	63
80	62
81	325
82	386
83	628
84	257
85	393
86	51
87	20
88	9
91	35
92	18
93	59
94	53
95	280
96	295
97	462
98	583
99	386
100	45
101	26
102	6
103	6
104	18
105	48
106	13
107	40
108	47
109	174
110	166
111	227
112	234
113	98
114	28
115	15
116	5
117	16
118	5
119	28
120	21
121	64
122	37
123	151
124	106
125	106
126	68
127	75
128	22
129	12
130	7
131	7
132	7
133	31
134	25
135	48
136	23
137	181
138	106
139	46
140	28
141	43
142	58
143	12
144	5
145	7
146	8
147	26
148	21
149	28
150	18
151	121
152	106
153	38
154	22
155	159
156	21
157	11
158	3
159	4
160	4
161	12
162	10
163	20
164	22
165	75
166	106
167	34
168	37
169	10
174	7
175	3
176	10
177	6
178	11
179	9
180	37
181	68
182	28
183	17
184	53
185	18
186	10
187	6
188	6
189	3
190	6
191	3
192	8
193	6
194	25
195	21
196	18
197	11
198	37
199	15
200	14
201	9
202	4
203	3
204	4
205	4
206	6
207	6
208	40
209	22
210	39
211	16
212	37
213	40
214	10
215	6
216	8
217	9
218	6
219	6
220	37
221	62
222	45
223	28
224	12
225	15
226	28
227	11
228	6
233	5
234	7
235	27
236	27
237	17
238	6
239	11
240	12
241	6
242	4
243	4
244	6
245	13
246	31
247	28
248	10
249	12
250	63
251	24
252	16
253	83
254	21
255	6
261	25
262	54
263	962
264	371
265	50
266	23
267	6
268	3
276	9
277	6
278	12
279	15
280	37
281	25
282	13
283	6
290	3
291	3
292	6
293	5
294	5
295	33
296	51
307	46
308	310
309	356
310	106
311	121
312	26
313	45
314	10
315	8
324	3
325	4
326	8
327	25
328	7
329	3
330	2
339	16
340	5
341	5
356	7
369	11
370	4
371	2
408	5
425	4
426	3
496	3
497	3
516	5
517	3
535	3
536	3
548	7
549	5
550	3
576	7
577	15
578	196
579	89
580	24
581	6
