Mass Spectrum: 9-Octadecen-12-ynoic acid, methyl ester
Formula: C19H32O2
CAS: 56847-05-3
Molecular weight: 292
m/z	intensity
37	7
38	17
39	170
40	34
41	534
42	637
43	999
44	38
45	8
49	2
50	10
51	19
52	11
53	39
54	28
55	196
56	133
57	305
58	16
59	31
60	3
61	3
62	3
63	7
64	3
65	23
66	20
67	95
68	42
69	64
70	74
71	190
72	85
73	11
74	24
75	5
76	3
77	54
78	29
79	130
80	96
81	86
82	30
83	34
84	13
85	24
86	27
87	43
88	5
89	4
90	3
91	77
92	27
93	140
94	79
95	57
96	21
97	24
98	10
99	7
100	2
101	11
102	3
103	6
104	4
105	41
106	14
107	71
108	38
109	27
110	10
111	12
112	5
113	5
114	2
115	9
116	3
117	8
118	3
119	21
120	15
121	42
122	26
123	12
124	4
125	5
126	4
127	4
128	3
129	6
130	2
131	6
132	3
133	12
134	7
135	29
136	27
137	8
138	3
139	3
140	4
141	6
142	3
143	4
144	3
145	4
146	3
147	9
148	6
149	27
150	16
151	5
152	3
153	3
154	3
155	3
156	2
157	3
158	2
159	3
160	2
161	9
162	6
163	14
164	21
165	4
166	2
167	2
168	3
169	2
170	1
171	5
172	2
173	2
174	1
175	8
176	3
177	8
178	4
179	2
180	2
181	2
182	2
183	1
185	3
186	1
187	2
188	2
189	7
190	3
191	3
192	1
193	2
194	2
195	2
196	5
197	1
198	1
199	1
200	1
201	1
202	1
203	3
204	3
205	2
206	2
207	3
208	2
209	1
210	1
217	2
218	2
219	2
220	2
221	4
222	3
223	2
229	1
230	1
231	1
232	1
233	1
234	1
235	4
236	55
237	10
238	2
239	1
243	1
249	2
250	1
260	1
261	18
262	5
263	3
264	2
281	2
292	11
293	3
294	2
