Mass Spectrum: 6,9-Octadecadiynoic acid, methyl ester
Formula: C19H30O2
CAS: 56847-03-1
Molecular weight: 290
m/z	intensity
26	40
27	300
28	80
29	350
30	10
31	40
32	20
37	50
38	70
39	490
40	60
41	780
42	160
43	400
44	20
45	40
49	30
50	230
51	370
52	360
53	280
54	80
55	650
56	110
57	250
58	20
59	270
60	20
61	20
62	30
63	120
64	40
65	240
66	90
67	440
68	70
69	220
70	60
71	80
72	20
73	50
74	230
75	70
76	100
77	600
79	600
80	120
81	420
82	90
83	90
84	40
85	60
86	10
87	90
88	40
89	60
90	20
91	999
92	310
93	330
94	70
95	380
96	60
97	60
98	30
99	20
101	50
102	20
103	130
104	160
105	680
106	200
107	150
108	30
109	120
110	150
111	30
112	20
113	10
114	10
115	200
116	110
117	660
118	340
119	450
120	110
121	80
122	20
123	50
124	50
125	10
127	40
128	100
129	230
130	130
131	680
132	220
133	250
134	60
135	60
136	20
137	20
138	10
139	10
141	40
142	50
143	150
144	80
145	560
146	130
147	130
148	30
149	30
150	10
151	20
152	10
153	30
154	10
155	40
156	20
157	150
158	50
159	430
160	150
161	90
162	20
163	20
164	10
165	20
166	10
169	30
170	10
171	130
172	50
173	220
174	50
175	60
176	10
177	40
178	10
179	10
181	10
183	20
184	30
185	60
186	40
187	70
188	10
189	60
190	20
191	30
192	40
193	20
194	10
199	40
200	20
201	40
202	10
203	30
204	10
205	170
206	40
207	10
211	10
213	20
215	10
216	10
217	10
219	20
220	50
221	10
229	30
230	10
231	20
232	11
233	10
234	10
245	10
247	10
259	100
260	40
261	10
275	30
290	10
