Mass Spectrum: 1,9,12,15-Octadecatetraene, 1-methoxy-
Formula: C19H32O
CAS: 56847-00-8
Molecular weight: 276
m/z	intensity
26	6
27	120
28	47
29	150
30	5
31	33
32	19
39	130
40	23
41	700
42	65
43	150
44	21
45	94
46	3
50	5
51	19
52	14
53	120
54	55
55	270
56	51
57	48
58	36
59	14
63	7
65	51
66	60
67	370
68	53
69	87
70	17
71	999
72	54
73	6
75	5
76	1
77	120
78	80
79	530
80	230
81	170
82	45
83	31
84	61
85	36
86	8
91	220
92	64
93	270
94	99
95	240
96	35
97	130
98	19
99	6
103	8
104	14
105	94
106	57
107	90
108	230
109	63
110	18
111	31
112	14
113	5
115	7
116	3
117	29
118	10
119	79
120	32
121	66
122	34
123	22
124	8
125	29
126	10
131	28
132	9
133	65
134	28
135	40
136	15
137	14
138	6
139	6
141	21
145	15
146	6
147	38
148	16
149	17
150	5
151	9
152	5
155	8
159	9
161	19
162	11
163	6
165	6
173	6
175	17
176	5
207	10
220	9
244	4
247	6
276	170
277	35
278	12
