Mass Spectrum: 2,5-Octadecadienoic acid, methyl ester
Formula: C19H34O2
CAS: 56846-97-0
Molecular weight: 294
m/z	intensity
27	260
28	110
29	550
30	20
31	20
32	20
33	20
38	10
39	210
40	50
41	999
42	140
43	990
44	40
45	60
50	10
51	40
52	30
53	180
54	160
55	760
56	130
57	480
58	30
59	250
60	20
61	20
63	10
64	10
65	80
66	130
67	560
68	170
69	380
70	80
71	250
72	20
73	20
74	190
75	50
76	10
77	220
78	60
79	750
80	350
81	540
82	210
83	290
84	130
85	100
86	10
87	180
88	20
89	10
91	120
92	30
93	210
94	280
95	340
96	130
97	200
98	100
99	30
100	470
101	40
102	10
103	10
104	10
105	70
106	30
107	290
108	100
109	150
110	50
111	570
112	70
113	350
114	50
115	40
116	10
117	20
118	10
119	100
120	30
121	140
122	50
123	70
124	30
125	100
126	60
127	50
128	30
129	20
131	20
132	10
133	40
134	40
135	70
136	40
137	40
138	20
139	390
140	60
141	40
142	10
143	10
145	10
147	10
148	10
149	30
150	20
151	20
152	20
153	30
154	20
155	20
156	10
157	10
163	10
165	10
166	10
167	10
177	10
179	10
180	10
181	10
193	10
199	10
220	10
222	10
234	20
235	10
263	30
264	10
265	10
294	310
295	60
296	20
