Mass Spectrum: 8,11,14-Docosatrienoic acid, methyl ester
Formula: C23H40O2
CAS: 56847-02-0
Molecular weight: 348
m/z	intensity
36	10
37	10
38	20
39	230
40	50
41	650
42	140
43	460
44	80
45	60
50	20
51	40
52	40
53	140
54	250
55	999
56	250
57	370
58	30
59	110
60	20
61	10
63	10
65	50
66	80
67	650
68	190
69	380
70	200
71	120
72	20
73	40
74	340
75	50
76	10
77	120
78	90
79	460
80	420
81	560
82	250
83	390
84	400
85	100
86	10
87	230
88	30
89	10
91	180
92	70
93	360
94	220
95	410
96	210
97	170
98	70
99	30
100	10
101	40
102	10
103	10
104	10
105	100
106	40
107	160
108	90
109	140
110	80
111	120
112	30
113	20
114	10
115	40
116	10
117	30
118	10
119	60
120	30
121	170
122	60
123	80
124	90
125	40
126	10
127	20
128	20
129	40
130	10
131	30
132	10
133	30
134	20
135	100
136	50
137	110
138	40
139	20
140	10
141	50
142	10
143	40
144	10
145	20
146	10
147	20
148	10
149	90
150	210
151	50
152	20
153	10
154	10
155	20
156	10
157	20
159	10
161	20
162	10
163	60
164	40
165	20
166	40
167	20
168	10
169	20
170	10
171	10
173	10
175	10
176	10
177	50
178	30
179	10
180	10
181	10
182	10
183	10
185	10
187	20
189	10
190	10
191	30
192	20
193	10
194	10
195	10
196	10
197	10
198	10
200	10
201	10
203	10
205	20
206	10
207	20
208	10
209	10
210	10
217	10
218	10
219	10
220	10
221	10
222	10
223	10
224	10
227	10
231	10
233	10
234	10
235	10
236	10
237	30
238	10
239	10
245	10
249	10
250	80
251	20
263	20
264	20
270	10
277	20
278	10
291	10
294	10
305	10
317	50
318	20
319	10
320	10
346	10
348	130
349	30
350	20
