Mass Spectrum: 9-Octadecene, 1-methoxy-, (E)-
Formula: C19H38O
CAS: 56847-01-9
Molecular weight: 282
m/z	intensity
26	6
27	95
28	64
29	180
30	5
31	11
32	11
33	3
37	2
39	85
40	18
41	550
42	62
43	270
44	27
45	73
50	4
51	9
52	7
53	60
54	140
55	290
56	66
57	130
58	43
59	17
60	5
65	16
66	22
67	230
68	120
69	150
70	33
71	999
72	56
73	8
74	6
76	1
77	19
78	11
79	69
80	69
81	170
82	180
83	88
84	66
85	43
86	7
87	6
91	21
92	9
93	60
94	50
95	160
96	140
97	160
98	24
99	6
105	10
106	5
107	38
108	37
109	61
110	46
111	51
112	20
113	6
119	5
120	5
121	72
122	39
123	27
124	32
125	79
126	15
127	6
135	64
136	24
137	16
138	35
139	16
141	18
142	5
149	20
150	8
151	6
152	20
153	8
155	11
163	7
165	5
166	15
167	5
170	5
184	11
205	5
220	5
248	13
280	37
281	9
