Mass Spectrum: 1-Propanol, 2-methyl-3-(phenylmethoxy)-
Formula: C11H16O2
CAS: 56850-59-0
Molecular weight: 180
m/z	intensity
26	1
27	18
28	4
29	12
30	1
31	61
34	0
36	0
37	0
38	4
39	45
40	5
41	45
42	9
43	31
44	1
45	5
50	9
51	32
52	9
53	4
54	1
55	21
56	35
57	10
58	6
59	26
60	1
61	0
62	4
63	19
64	7
65	93
66	5
67	0
69	1
70	0
71	14
72	1
73	3
74	2
75	2
76	3
77	58
78	24
79	90
80	8
81	1
82	0
83	1
84	1
85	0
86	1
87	1
88	0
89	33
90	19
91	999
92	202
93	13
94	1
95	0
96	0
97	1
101	1
102	0
103	0
104	5
105	29
106	6
107	583
108	129
109	9
110	0
111	0
113	0
115	1
116	0
117	18
118	5
119	6
120	17
121	2
122	0
123	0
124	0
125	0
127	0
128	0
129	2
130	0
131	2
132	4
133	1
134	0
135	0
136	0
141	0
144	2
147	4
148	0
160	1
161	23
162	14
163	2
165	0
179	1
180	46
181	6
182	1
