Mass Spectrum: 2-Undecene, 5-methyl-
Formula: C12H24
CAS: 56851-34-4
Molecular weight: 168
m/z	intensity
24	0
25	1
26	8
27	106
28	18
29	223
30	4
31	0
32	1
36	0
38	2
39	83
40	13
41	336
42	75
43	701
44	10
45	0
47	0
49	0
50	1
51	6
52	2
53	34
54	26
55	312
56	217
57	999
58	41
59	0
62	0
63	1
64	0
65	5
66	2
67	31
68	19
69	101
70	144
71	683
72	36
73	0
75	1
76	0
77	5
78	1
79	6
80	0
81	7
82	30
83	113
84	75
85	12
86	0
91	1
92	0
93	0
95	15
96	1
97	20
98	25
99	6
100	0
105	0
107	0
109	0
110	13
111	47
112	129
113	17
114	1
119	1
125	0
126	27
127	2
128	0
137	0
139	0
140	5
141	0
167	0
168	36
169	3
