Mass Spectrum: Cyclopropane, 1,1-dichloro-2-hexyl-
Formula: C9H16Cl2
CAS: 5685-42-7
Molecular weight: 194
m/z	intensity
39	600
40	90
41	930
42	400
43	720
44	40
51	200
52	10
53	200
54	160
55	550
56	999
57	310
58	20
65	90
67	120
69	450
70	530
71	40
75	80
77	60
81	110
83	160
84	10
87	100
89	60
98	90
102	90
109	60
111	40
123	50
194	1
