Mass Spectrum: Cyclopentanol, TMS derivative
Formula: C8H18OSi
CAS: 56859-54-2
Molecular weight: 158
m/z	intensity
15	2
26	1
27	10
28	5
29	15
30	1
31	4
39	23
40	4
41	37
42	13
43	33
44	14
45	89
46	6
47	34
48	1
50	1
51	2
53	7
54	2
55	11
56	3
57	12
58	10
59	64
60	12
61	45
62	3
63	3
65	6
66	3
67	23
68	5
69	3
70	4
71	8
73	419
74	48
75	999
76	73
77	36
83	1
85	20
86	3
87	6
88	1
89	4
91	1
95	1
97	2
99	26
100	3
101	57
102	5
103	3
111	3
113	12
114	5
115	91
116	18
117	4
127	2
129	404
130	68
131	19
141	2
143	901
144	114
145	38
146	3
157	9
158	192
159	27
160	8
