Mass Spectrum: Pyrimidine, 1,4,5,6-tetrahydro-1-methyl-2-[2-(2-thienyl)ethenyl]-
Formula: C11H14N2S
CAS: 5686-02-2
Molecular weight: 206
m/z	intensity
33	9
34	4
35	7
36	17
37	25
38	68
39	330
40	79
41	357
42	999
43	245
44	165
45	359
47	37
48	0
49	5
50	61
51	75
52	60
53	31
54	60
55	69
56	96
57	76
58	143
59	23
60	22
61	16
62	39
63	83
64	41
65	108
66	41
67	18
68	52
69	133
70	103
71	29
72	6
73	9
74	22
75	38
76	56
77	49
78	24
79	16
80	14
81	31
82	43
83	22
84	51
85	8
86	5
87	6
88	14
89	27
90	36
91	81
92	16
93	17
94	17
95	33
96	36
97	46
98	17
99	7
101	7
102	10
103	14
104	17
105	12
106	8
107	17
108	93
109	89
110	25
111	9
112	5
113	0
115	5
116	14
117	24
118	16
119	7
121	71
122	30
123	150
124	13
125	3
126	0
127	0
128	3
130	26
131	9
132	9
134	69
135	233
136	75
137	13
138	4
139	1
142	1
143	3
145	131
146	11
147	7
148	21
150	103
151	10
152	5
154	0
155	1
157	10
158	7
159	10
162	50
163	15
165	10
166	1
167	1
169	0
171	4
173	236
174	24
175	3
177	83
178	11
179	6
180	4
187	0
188	0
189	0
190	1
191	4
192	0
193	0
203	3
205	366
206	155
207	33
208	8
209	0
210	0
