Mass Spectrum: 1,2,5-Oxadiazole-3,4-dicarboxamide
Formula: C4H4N4O3
CAS: 56873-33-7
Molecular weight: 156
m/z	intensity
16	63
26	19
28	302
29	54
30	144
38	40
39	34
40	35
41	17
42	29
43	129
44	999
45	40
52	41
53	97
54	52
55	80
56	10
66	15
67	22
68	8
69	21
70	146
71	25
83	11
85	85
113	138
114	7
156	135
157	10
