Mass Spectrum: 1,1,3-Propanetricarboxylic acid, 3-[[(phenylmethoxy)carbonyl]amino]-, 1,1-bis(1,1-dimethylethyl) 3-methyl ester, (.+-.)-
Formula: C23H33NO8
CAS: 56877-40-8
Molecular weight: 451
m/z	intensity
27	14
28	11
29	64
30	2
31	3
33	2
39	23
40	4
41	106
42	8
43	27
44	7
45	4
50	2
51	7
52	2
53	4
54	4
55	50
56	25
57	416
58	18
59	21
60	5
62	5
65	45
66	3
67	4
69	16
70	5
71	10
73	6
74	4
76	6
77	13
78	18
80	7
81	10
82	10
83	12
84	6
87	3
88	7
89	12
90	11
91	999
92	91
93	8
94	4
96	5
97	5
98	4
99	6
100	3
103	6
104	8
107	85
108	126
109	13
110	13
111	4
114	4
115	9
120	5
125	3
127	13
128	5
129	3
131	5
132	8
134	4
140	4
141	11
142	5
143	4
145	7
147	3
149	5
151	4
157	4
160	5
162	9
163	6
168	15
169	4
170	10
173	5
174	5
183	8
185	20
187	5
188	10
192	37
193	5
198	4
200	7
204	115
205	14
206	2
210	3
218	6
219	7
223	9
232	64
233	7
236	100
237	15
248	8
260	4
278	54
279	10
280	187
281	30
282	4
288	4
308	8
322	30
323	5
336	17
339	152
340	31
341	5
395	21
396	6
451	0
