Mass Spectrum: 2-Pyrrolidineacetic acid
Formula: C6H11NO2
CAS: 56879-46-0
Molecular weight: 129
m/z	intensity
26	6
27	43
28	144
29	28
30	77
31	13
39	40
40	13
41	98
42	52
43	110
44	10
45	18
46	3
50	2
51	5
52	5
53	18
54	23
55	90
56	201
57	14
58	3
60	8
65	4
67	16
68	104
69	27
70	999
71	65
73	5
80	10
81	4
82	59
83	47
84	15
85	6
86	5
88	3
100	10
101	78
102	4
110	60
111	4
112	3
128	26
129	62
130	11
