Mass Spectrum: 7-Hexadecenoic acid, methyl ester, (Z)-
Formula: C17H32O2
CAS: 56875-67-3
Molecular weight: 268
m/z	intensity
27	36
29	65
39	72
41	552
43	320
44	55
45	17
53	74
54	210
55	999
56	100
57	142
58	37
59	155
60	27
65	63
66	46
67	294
68	158
69	463
70	116
71	20
72	16
73	102
74	399
75	55
77	33
79	212
80	45
81	190
82	149
83	354
84	295
85	98
86	28
87	216
88	21
91	35
93	94
94	53
95	253
96	244
97	171
98	237
99	61
100	22
101	61
107	33
108	48
109	105
110	154
111	85
112	36
113	46
114	50
116	9
119	21
121	24
122	30
123	100
124	38
125	62
127	34
128	42
133	21
134	30
135	40
136	32
137	42
138	73
139	59
141	43
142	25
143	24
147	27
148	16
150	11
151	16
152	111
153	25
155	8
157	8
165	16
166	8
167	14
192	19
193	20
194	87
195	17
199	8
207	16
208	9
236	71
237	88
268	19
