Mass Spectrum: 3-Cyclohexene-1-carboxylic acid, 3,4-dimethyl-, methyl ester
Formula: C10H16O2
CAS: 5688-48-2
Molecular weight: 168
m/z	intensity
27	40
28	74
29	51
30	1
31	6
33	6
39	46
40	13
41	170
42	16
43	93
44	4
45	10
47	0
50	1
51	7
52	5
53	54
54	27
55	115
56	9
57	9
58	2
59	42
60	1
61	13
63	1
64	0
65	35
66	15
67	343
68	28
69	60
70	4
71	6
72	2
73	5
74	4
75	1
76	0
77	94
78	17
79	122
80	32
81	98
82	64
83	13
84	3
85	8
86	2
87	34
88	3
89	2
90	1
91	136
92	27
93	726
94	80
95	23
96	8
97	8
98	5
99	3
100	15
101	2
103	3
104	0
105	23
106	9
107	138
108	999
109	635
110	52
111	21
112	3
113	4
114	4
115	3
116	0
119	2
120	1
121	18
122	4
123	21
124	5
125	27
126	5
127	1
128	1
130	1
133	1
134	0
135	5
136	129
137	64
138	7
139	7
140	3
141	1
142	1
143	0
149	0
150	0
151	3
152	1
153	14
154	2
164	0
165	0
166	3
167	1
168	285
169	34
170	3
