Mass Spectrum: 7-Hydroxy-3-(1,1-dimethylprop-2-enyl)coumarin
Formula: C14H14O3
CAS: 56881-08-4
Molecular weight: 230
m/z	intensity
41	435
43	999
44	452
45	466
55	438
56	107
57	370
60	136
67	155
69	299
71	246
73	116
77	164
79	161
83	195
84	105
85	158
91	226
93	105
95	195
96	110
97	198
98	119
105	178
106	110
107	116
109	121
111	105
115	113
117	110
121	130
129	158
131	136
145	96
147	76
155	76
161	51
175	85
187	51
202	88
215	48
230	37
