Mass Spectrum: Dibenzyl anilinophosphonate
Formula: C20H20NO3P
CAS: 56883-96-6
Molecular weight: 353
m/z	intensity
41	20
43	5
44	2
45	0
47	6
49	23
50	2
51	36
52	10
53	4
55	2
57	2
63	29
65	215
66	10
68	1
71	1
77	38
79	67
80	2
81	3
84	11
86	11
87	0
89	30
91	999
92	80
93	58
94	2
104	6
105	10
107	482
108	28
109	2
137	2
138	5
155	33
156	6
165	7
166	4
167	3
168	2
173	5
178	1
179	6
180	50
181	34
182	44
183	4
184	22
186	2
244	4
260	1
261	1
262	184
263	23
264	1
353	176
354	42
355	4
