Mass Spectrum: 1-t-Butyl-4-dibromomethylene-cyclohexane
Formula: C11H18Br2
CAS: 56881-81-3
Molecular weight: 308
m/z	intensity
26	8
27	54
28	36
29	101
30	2
36	2
37	3
38	11
39	87
40	15
41	279
42	17
43	66
44	21
45	2
49	1
50	12
51	47
52	18
53	36
54	10
55	69
56	24
57	999
58	64
59	3
62	3
63	14
64	6
65	58
66	25
67	39
68	84
69	38
70	13
71	11
72	3
73	2
74	1
75	2
76	2
77	51
78	22
79	35
80	13
81	23
82	5
83	17
84	4
85	3
89	7
90	5
91	101
92	56
93	68
94	9
95	11
96	4
97	8
98	5
99	1
102	1
103	4
104	4
105	21
106	13
107	14
108	2
109	5
111	3
115	5
116	2
117	9
118	2
119	11
120	1
121	5
123	10
124	3
128	2
129	2
130	1
131	13
132	2
133	13
134	9
135	5
137	16
138	2
139	1
141	3
142	2
143	3
144	4
145	4
146	4
147	2
149	32
150	4
156	1
157	5
158	3
159	9
160	2
161	5
169	1
170	2
171	17
172	10
173	25
174	9
175	11
176	1
185	8
186	2
187	8
188	1
197	2
199	3
201	1
210	3
212	6
213	10
214	3
215	9
216	2
229	2
231	2
237	7
239	12
241	5
250	3
251	3
252	42
253	8
254	74
255	8
256	33
257	2
264	2
265	5
266	6
267	10
268	4
269	5
280	0
291	16
292	1
293	27
294	3
295	14
296	1
308	28
309	3
310	53
311	7
312	26
313	3
