Mass Spectrum: 2-Undecene, 2-methyl-
Formula: C12H24
CAS: 56888-88-1
Molecular weight: 168
m/z	intensity
24	1
25	3
26	7
27	83
29	105
30	4
31	2
33	0
35	1
36	1
37	5
38	1
39	55
40	18
41	498
42	86
43	206
45	1
46	1
49	0
50	0
51	4
52	4
53	36
54	23
55	322
56	684
57	329
58	15
62	1
63	2
64	0
65	11
66	8
67	66
68	82
69	999
70	248
71	45
72	1
74	2
77	7
78	3
79	12
80	3
81	18
82	37
83	123
84	76
85	17
90	0
91	0
95	10
96	7
97	57
98	14
105	0
108	0
109	0
110	5
111	24
112	20
113	1
115	0
124	3
125	10
126	3
133	1
140	12
141	2
142	0
153	5
154	0
164	0
166	1
167	3
168	85
169	10
170	0
