Mass Spectrum: (2R,6R)-2-Heptyl-6-methylpiperidine
Formula: C13H27N
CAS: 56880-71-8
Molecular weight: 197
m/z	intensity
53	8
54	13
55	66
56	49
57	12
58	6
67	14
68	12
69	21
70	31
71	6
79	4
80	4
81	25
82	20
83	8
84	9
95	7
96	27
98	999
99	73
110	5
112	4
154	6
168	2
182	28
183	4
196	8
197	5
