Mass Spectrum: [1,2,3]Oxadiazolo[3,4-a]quinolin-10-ium, 4,5-dihydro-3-hydroxy-, hydroxide, inner salt
Formula: C10H8N2O2
CAS: 56890-02-9
Molecular weight: 188
m/z	intensity
26	17
27	133
28	30
29	13
30	21
37	21
38	60
39	177
40	28
50	144
51	220
52	73
53	25
61	25
62	69
63	211
64	86
65	138
66	17
73	13
74	71
75	103
76	97
77	470
78	73
79	13
88	21
89	233
90	64
91	21
101	47
102	146
103	850
104	125
105	15
115	38
128	99
129	86
130	999
131	246
132	17
158	241
159	21
188	224
189	38
