Mass Spectrum: Octanoic acid, 8-(octylthio)-
Formula: C16H32O2S
CAS: 56909-05-8
Molecular weight: 288
m/z	intensity
26	20
27	360
28	80
29	600
30	20
31	20
35	10
38	10
39	200
40	40
41	999
42	220
43	730
44	30
45	180
46	60
47	130
48	10
49	10
51	10
52	10
53	80
54	80
55	960
56	250
57	310
58	20
59	60
60	240
61	420
62	20
63	30
65	10
66	10
67	150
68	130
69	570
70	210
71	140
72	10
73	120
74	30
75	40
76	10
77	10
79	30
80	20
81	190
82	170
83	310
84	130
85	40
86	10
87	160
88	20
89	40
90	10
91	10
93	10
95	110
96	110
97	120
98	140
99	40
100	30
101	60
102	10
103	20
105	10
107	10
109	10
110	10
111	50
112	100
113	90
114	60
115	50
116	10
117	20
123	90
124	140
125	100
126	10
127	10
129	40
130	10
131	10
139	20
140	30
141	40
142	20
143	40
144	40
145	680
146	90
147	40
156	10
157	320
158	110
159	200
160	30
161	10
171	10
173	20
174	10
175	50
176	10
187	10
189	40
190	10
191	10
201	10
203	20
204	10
213	10
215	10
217	10
227	10
229	20
230	10
231	20
232	10
241	10
245	10
252	10
253	10
259	10
269	10
271	10
287	20
288	300
289	60
290	20
291	10
