Mass Spectrum: Cholestan-3-ol, TMS derivative
Formula: C30H56OSi
CAS: 56907-47-2
Molecular weight: 460
m/z	intensity
26	12
27	64
28	549
29	85
30	286
31	10
32	37
35	167
36	999
37	55
38	328
39	29
40	40
41	213
42	229
43	519
44	862
45	99
46	5
47	12
48	3
49	4
50	3
51	6
52	6
53	32
54	15
55	290
56	74
57	358
58	25
59	22
60	13
61	36
62	4
63	4
64	3
65	8
66	8
67	152
68	40
69	213
70	45
71	152
72	404
73	305
74	38
75	740
76	51
77	50
78	9
79	122
80	25
81	259
82	51
83	137
84	20
85	32
86	4
87	6
88	7
89	30
90	6
91	99
92	259
93	183
94	55
95	259
96	33
97	83
98	13
99	13
100	5
101	24
102	4
103	19
104	16
105	99
106	152
107	244
108	99
109	129
110	40
111	67
112	12
113	12
114	4
115	24
116	11
117	25
118	18
119	67
120	45
121	122
122	39
123	70
124	16
125	23
126	7
127	13
128	7
129	60
130	29
131	64
132	17
133	66
134	33
135	84
136	31
137	26
138	43
139	14
140	9
141	12
142	67
143	25
144	12
145	73
146	29
147	122
148	59
149	73
150	13
151	20
152	23
153	11
154	5
155	47
156	14
157	12
158	9
159	42
160	32
161	67
162	27
163	30
164	6
165	20
166	11
167	9
168	5
169	9
170	6
171	6
172	5
173	29
174	16
175	31
176	15
177	15
178	6
179	12
180	8
181	13
182	10
183	12
184	5
185	7
186	4
187	22
188	14
189	22
190	25
191	22
192	6
193	11
194	6
195	6
196	28
197	12
198	6
199	8
200	4
201	42
202	17
203	19
204	11
205	11
206	6
207	10
208	10
209	10
210	6
211	4
213	9
214	6
215	320
216	190
217	160
218	31
219	16
220	6
221	6
223	6
224	3
225	3
227	4
228	3
229	19
230	89
231	29
232	8
233	13
234	8
235	9
236	5
237	29
238	13
239	7
240	3
241	7
242	3
243	7
244	6
245	6
246	6
247	12
248	6
249	6
250	6
251	4
252	3
253	3
254	3
255	9
256	6
257	26
258	7
259	6
260	6
261	7
262	38
263	19
264	9
265	5
266	3
267	3
268	3
269	3
270	3
271	4
272	3
273	5
274	4
275	8
276	7
277	6
278	5
279	3
281	3
282	3
283	5
284	5
285	11
286	6
287	6
288	7
289	7
290	3
291	13
292	6
293	4
299	6
300	3
301	6
302	5
303	4
304	8
305	99
306	91
307	25
308	7
309	4
313	9
314	3
315	12
316	9
317	7
318	4
319	13
320	22
321	9
322	3
327	3
328	7
329	13
330	16
331	25
332	9
333	5
334	4
335	3
341	5
342	3
343	3
344	10
345	6
346	5
347	3
348	3
353	6
354	6
355	114
356	32
357	9
358	3
359	2
368	7
369	22
370	77
371	25
372	9
373	5
374	4
375	5
376	3
386	3
387	3
388	9
389	9
390	4
403	38
404	15
405	5
445	190
446	72
447	22
448	6
449	3
458	12
459	12
460	183
461	72
462	22
463	5
