Mass Spectrum: 12-Tridecynoic acid, methyl ester
Formula: C14H24O2
CAS: 56909-01-4
Molecular weight: 224
m/z	intensity
27	130
28	40
29	160
31	10
38	10
39	150
40	30
41	450
42	80
43	230
44	20
45	30
50	10
51	20
52	10
53	110
54	170
55	490
56	50
57	60
58	10
59	200
60	10
61	10
63	10
65	30
66	30
67	340
68	220
69	270
70	20
71	20
72	10
73	50
74	999
75	100
76	10
77	30
78	10
79	100
80	70
81	480
82	200
83	140
84	60
85	30
87	400
88	50
89	10
91	30
92	10
93	70
94	80
95	320
96	140
97	90
98	40
99	20
100	10
101	50
102	10
105	10
106	10
107	50
108	60
109	160
110	50
111	60
112	10
113	20
114	20
115	30
116	10
119	10
120	10
121	40
122	30
123	40
124	20
125	20
126	20
127	20
128	10
129	30
131	10
133	20
134	10
135	50
136	20
137	20
138	10
139	10
140	10
141	10
143	20
145	10
148	10
149	30
150	50
151	20
152	10
153	10
163	10
164	10
165	10
167	10
175	10
193	10
194	3
195	3
196	1
197	1
199	1
209	1
214	1
224	1
225	1
226	1
228	1
