Mass Spectrum: 13-Tetradecynoic acid, methyl ester
Formula: C15H26O2
CAS: 56909-03-6
Molecular weight: 238
m/z	intensity
27	160
28	70
29	240
30	10
31	20
39	170
40	40
41	630
42	100
43	360
44	30
45	40
51	20
52	20
53	130
54	200
55	660
56	70
57	110
58	20
59	210
60	20
61	20
65	30
66	30
67	390
68	240
69	300
70	40
71	40
72	10
73	50
74	999
75	100
76	10
77	30
78	20
79	100
80	70
81	500
82	230
83	190
84	70
85	30
87	380
88	80
89	10
91	30
92	10
93	50
94	60
95	280
96	150
97	110
98	40
99	20
100	10
101	50
105	10
107	40
108	30
109	110
110	50
111	60
112	20
113	20
114	20
115	30
119	10
120	10
121	30
122	30
123	40
124	20
125	30
126	10
127	10
128	10
129	20
130	10
133	20
134	30
135	20
136	20
137	10
138	10
139	10
140	10
141	20
143	20
147	10
149	20
150	20
151	20
163	10
164	20
165	10
166	10
167	10
177	10
178	10
189	10
207	10
208	2
209	1
210	2
211	1
212	1
214	1
216	1
217	1
218	1
220	1
221	1
222	2
223	2
224	1
225	1
