Mass Spectrum: 6-Heptynoic acid, methyl ester
Formula: C8H12O2
CAS: 56909-02-5
Molecular weight: 140
m/z	intensity
26	40
27	370
28	110
29	190
30	20
31	60
37	20
38	60
39	500
40	100
41	570
42	150
43	410
44	30
45	60
49	10
50	80
51	150
52	120
53	410
54	90
55	230
56	30
57	60
58	20
59	740
60	30
61	10
62	10
63	30
64	10
65	110
66	130
67	150
68	30
69	60
70	10
71	20
72	10
73	10
74	790
75	50
76	10
77	120
78	40
79	460
80	630
81	999
82	90
83	40
84	40
85	30
87	60
88	10
91	10
93	10
95	20
96	10
97	100
98	310
99	40
100	10
101	130
102	10
107	30
108	100
109	370
110	40
111	70
112	40
123	10
125	170
126	20
139	10
140	10
