Mass Spectrum: 1-Propanesulfinic acid, 2-methyl-, methyl ester
Formula: C5H12O2S
CAS: 56909-12-7
Molecular weight: 136
m/z	intensity
50	101
54	120
55	999
56	32
65	275
73	69
79	232
80	520
91	10
105	140
121	100
136	85
137	27
