Mass Spectrum: Silane, [1-[(trimethylsilyl)oxy]butylidene]bis[trimethyl-
Formula: C13H34OSi3
CAS: 56919-94-9
Molecular weight: 290
m/z	intensity
27	13
28	81
29	7
30	0
31	6
37	0
38	1
39	4
40	1
41	7
42	2
43	25
44	24
45	117
46	7
47	7
49	0
50	1
51	1
52	1
53	1
54	1
55	10
56	2
57	7
58	11
59	104
60	8
61	5
63	0
64	1
65	1
66	4
67	1
68	1
69	4
70	2
71	6
72	10
73	999
74	84
75	92
76	5
77	5
78	1
79	0
80	0
81	1
82	0
83	8
84	1
85	33
86	17
87	12
88	1
89	0
91	1
92	0
93	0
94	3
95	1
96	0
97	7
98	1
99	67
100	8
101	8
102	1
103	4
104	1
105	4
106	0
107	0
109	1
110	0
111	8
112	8
113	393
114	46
115	18
116	2
117	11
118	1
119	8
120	1
121	0
123	0
125	0
126	0
127	5
128	23
129	159
130	18
131	39
132	5
133	89
134	13
135	7
136	0
141	1
142	4
143	73
144	9
145	8
146	4
147	450
148	71
149	39
150	3
151	0
155	0
156	0
157	4
158	0
159	6
160	1
161	0
162	0
163	12
164	2
165	0
171	2
172	0
173	3
174	1
175	1
184	0
185	2
186	1
187	14
188	3
189	2
200	3
201	7
202	1
203	1
205	2
206	0
207	0
216	9
217	102
218	22
219	10
220	1
221	0
223	0
231	1
232	0
233	0
245	0
247	3
248	0
259	0
261	2
263	0
275	4
276	1
277	0
290	24
291	7
292	3
293	0
