Mass Spectrum: 2,5-Cyclohexadiene-1,4-dione, 2,5-dimethoxy-3,6-dimethyl-
Formula: C10H12O4
CAS: 5691-54-3
Molecular weight: 196
m/z	intensity
38	90
39	430
40	100
41	170
42	40
43	190
44	80
50	50
51	90
52	80
53	240
54	190
55	350
56	40
59	100
62	40
63	60
64	20
65	160
66	170
67	420
68	60
69	100
70	50
77	170
78	60
79	80
80	40
81	40
82	90
83	920
84	50
91	50
92	30
93	50
94	50
95	70
96	30
97	999
98	90
99	20
105	20
107	50
108	30
109	70
110	40
111	20
121	50
122	20
123	840
124	80
125	450
126	40
135	40
137	80
138	40
139	130
140	50
148	30
149	30
150	80
151	70
152	30
153	460
154	50
155	40
163	40
165	30
166	90
167	450
168	170
169	30
178	90
181	190
182	30
195	40
196	390
197	70
