Mass Spectrum: Didecyl 1,4-dihydro-2,6-dimethyl-3,5-pyridinedicarboxylate
Formula: C29H51NO4
CAS: 56912-22-2
Molecular weight: 477
m/z	intensity
34	10
35	2
36	9
37	5
39	141
40	219
41	711
42	239
43	999
44	100
45	8
49	1
50	5
51	12
52	10
53	48
55	558
56	158
57	412
60	4
61	2
63	20
64	25
65	27
66	31
67	91
68	52
69	193
70	94
71	96
72	7
73	4
75	1
77	36
78	16
79	38
80	11
81	29
82	32
83	96
84	34
85	52
86	5
87	2
89	1
91	14
92	9
93	12
94	14
95	18
96	27
97	42
98	12
99	5
100	2
102	2
103	5
104	23
105	35
106	71
107	138
108	31
109	9
110	13
111	15
112	14
113	5
114	6
115	2
116	1
117	2
118	2
119	4
120	10
121	13
122	12
123	4
124	2
125	2
126	1
128	1
129	2
130	2
132	12
133	46
134	53
135	75
136	21
137	5
138	9
139	2
140	5
141	1
144	1
145	1
146	3
147	7
148	9
149	33
150	84
151	149
152	163
153	18
154	8
155	2
157	1
160	9
161	4
162	21
163	6
164	8
165	9
166	6
167	2
169	1
171	9
172	1
175	2
176	7
177	15
178	97
179	42
180	103
181	10
182	8
183	1
189	2
190	2
191	4
192	8
193	16
195	133
196	370
197	36
198	6
199	1
204	2
205	4
206	11
207	9
208	3
215	4
218	1
219	2
220	10
221	5
222	3
223	1
224	2
232	3
233	5
234	10
235	5
236	5
237	4
238	2
246	2
247	2
248	9
249	5
250	11
251	3
252	1
260	1
261	1
262	7
263	3
264	11
265	2
266	1
271	1
272	2
274	2
275	1
276	8
277	3
278	9
279	2
280	2
283	2
289	4
290	15
291	34
292	21
293	5
294	8
295	3
304	2
305	5
306	4
315	2
316	4
318	58
319	25
320	96
321	20
322	8
323	1
329	1
330	3
332	14
333	20
334	24
336	717
337	137
338	18
339	2
376	2
377	1
390	7
391	2
404	8
405	2
416	4
418	8
419	2
420	1
432	6
433	1
446	3
460	4
462	3
473	1
474	2
475	12
476	15
477	12
478	3
479	3
