Mass Spectrum: Cyclohexanol, 2-(aminomethyl)-, trans-
Formula: C7H15NO
CAS: 5691-09-8
Molecular weight: 129
m/z	intensity
15	5
17	17
26	5
27	38
29	34
30	999
31	32
39	39
41	89
42	28
43	38
44	65
45	7
48	92
51	6
52	5
53	21
54	138
55	57
56	53
57	36
58	19
59	4
65	7
66	9
67	293
68	73
69	24
70	49
71	8
72	10
73	17
77	12
79	47
80	19
81	42
82	155
83	36
84	20
86	23
91	6
93	9
94	26
95	6
96	5
97	25
98	7
100	9
101	11
110	10
111	30
112	81
113	7
128	2
129	34
130	8
