Mass Spectrum: 2-Stilbazole, 2'-hydroxydihydro-
Formula: C13H13NO
CAS: 56920-35-5
Molecular weight: 199
m/z	intensity
39	40
51	40
52	30
65	40
66	40
77	70
78	50
79	60
92	30
93	999
94	70
106	80
107	50
182	70
198	50
199	260
200	40
