Mass Spectrum: Benzamidoacetonitrile
Formula: C9H8N2O
CAS: 5692-27-3
Molecular weight: 160
m/z	intensity
12	1
13	2
14	3
15	1
16	6
17	59
18	217
19	0
20	0
24	0
25	1
26	9
27	41
28	63
29	13
30	4
31	4
32	2
36	1
37	11
38	24
39	34
40	47
41	8
42	1
43	6
44	5
45	2
46	1
48	0
49	10
50	137
51	325
52	26
53	14
54	3
55	4
56	8
57	4
58	2
60	1
61	3
62	5
63	8
64	5
65	4
66	1
67	1
68	0
69	1
70	1
71	2
72	0
73	7
74	35
75	26
76	38
77	634
78	49
79	2
80	0
81	1
82	0
83	5
84	1
85	1
86	0
87	0
88	0
89	1
90	1
91	7
92	3
93	0
94	0
95	0
96	0
97	1
98	0
99	0
100	0
101	0
102	3
103	6
105	999
106	81
107	5
108	0
109	0
110	0
111	1
112	1
113	0
114	0
115	0
116	1
117	0
118	2
119	7
120	0
121	0
123	0
124	0
125	0
127	0
129	0
130	1
131	1
132	3
133	1
134	1
135	0
139	0
141	0
143	0
149	1
155	0
157	0
160	309
161	33
162	2
