Mass Spectrum: Androst-5-en-7-one, 3,17-bis(acetyloxy)-19-(methoxymethoxy)-4,4-dimethyl-, (3.beta.,17.beta.)-
Formula: C27H40O7
CAS: 56931-56-7
Molecular weight: 476
m/z	intensity
29	47
39	18
41	117
42	20
43	548
44	56
45	999
46	23
55	135
56	33
57	135
58	23
59	38
65	60
66	21
67	136
68	28
70	71
72	20
74	88
77	22
79	58
81	114
82	27
83	63
84	20
85	44
91	72
93	84
94	26
95	79
96	20
97	45
99	20
106	77
108	80
109	36
110	47
112	32
118	28
120	62
122	52
124	27
130	25
132	43
134	80
136	37
144	25
145	49
147	40
149	32
155	23
157	32
159	87
161	42
171	51
173	47
174	45
175	51
176	32
185	43
187	65
188	54
189	25
197	23
199	23
201	24
211	41
213	46
225	27
227	27
239	57
249	22
251	25
253	46
254	29
255	21
263	27
265	43
267	169
268	38
279	20
280	20
281	100
282	192
283	63
285	20
298	33
300	34
311	23
312	20
313	25
317	22
323	45
325	23
327	33
341	378
342	190
343	46
354	45
355	21
356	20
371	33
385	44
386	137
387	38
401	34
446	784
447	218
448	41
476	34
477	12
