Mass Spectrum: d-Ribopyranose, tetrakis(trifluoroacetate)
Formula: C13H6F12O9
CAS: 56942-83-7
Molecular weight: 534
m/z	intensity
40	26
41	162
42	30
43	110
44	31
45	50
46	7
47	11
49	10
50	50
51	58
52	28
53	21
54	11
55	49
56	11
57	29
58	6
59	78
60	5
65	10
67	20
68	40
69	999
70	30
71	72
72	7
73	9
75	5
77	20
78	50
79	38
80	10
81	25
83	35
84	5
85	15
86	5
87	30
89	40
90	5
91	20
93	6
95	35
96	5
97	250
98	10
99	70
108	8
109	24
112	30
113	6
115	21
117	39
125	40
127	50
130	9
135	11
136	7
137	81
138	7
139	35
140	58
141	7
143	6
145	7
152	10
153	98
154	10
155	17
165	130
166	20
167	36
169	18
181	26
182	10
183	30
193	320
194	30
195	5
196	66
197	5
209	26
210	6
211	9
251	45
252	7
265	268
266	20
278	340
279	65
280	10
287	13
307	15
421	38
422	8
