Mass Spectrum: d-Ribofuranose, tetrakis(trifluoroacetate)
Formula: C13H6F12O9
CAS: 56942-82-6
Molecular weight: 534
m/z	intensity
40	15
41	95
42	20
43	85
44	50
45	151
47	12
49	18
50	85
51	112
52	100
53	25
54	30
55	56
56	8
57	21
58	6
59	38
65	11
66	5
67	20
68	20
69	999
70	18
71	50
72	5
73	10
74	5
75	10
77	28
78	41
79	125
80	20
81	30
83	150
84	15
85	15
86	10
87	20
89	20
91	8
93	8
95	26
96	5
97	185
98	10
99	50
105	10
109	10
112	5
113	5
115	17
117	29
121	10
123	9
125	25
127	25
135	5
137	25
138	5
139	29
140	10
141	9
143	9
151	5
152	5
153	35
154	10
155	8
165	50
166	9
167	30
168	6
169	20
180	6
181	11
183	18
193	255
194	20
195	7
196	9
209	31
251	5
252	15
265	189
266	12
278	89
279	12
287	15
293	41
294	5
306	35
307	11
407	60
408	8
421	40
422	5
