Mass Spectrum: (-)-p-Bromotetramisole oxalate
Formula: C11H11BrN2S
CAS: 56943-06-7
Molecular weight: 282
m/z	intensity
15	2
26	5
27	28
29	12
30	11
35	1
37	3
38	11
39	36
40	2
41	31
42	46
43	8
44	9
45	85
46	23
47	6
48	1
49	4
50	87
51	87
52	22
53	12
54	56
55	26
56	103
57	10
58	23
59	49
60	44
61	26
62	51
63	121
64	21
65	12
66	4
67	6
68	9
69	29
70	16
71	20
72	93
73	658
74	77
75	126
76	99
77	119
78	15
79	4
80	3
81	8
82	5
83	2
84	7
85	5
86	22
87	26
88	62
89	156
90	53
91	16
92	3
93	10
94	12
95	4
96	10
97	3
98	37
99	51
100	28
101	999
102	209
103	188
104	28
105	4
106	1
107	2
108	2
111	3
112	1
113	5
114	27
115	62
116	56
117	50
118	9
119	22
120	160
121	29
122	10
123	2
125	13
126	82
127	221
128	29
129	24
130	21
131	8
132	1
133	2
134	8
135	3
140	2
141	6
142	18
143	40
144	12
145	6
146	117
147	119
148	51
149	11
150	3
154	1
155	35
156	8
157	34
158	7
159	3
160	2
161	1
167	5
168	3
169	26
170	7
171	18
172	2
173	7
174	29
175	28
176	13
177	3
180	3
181	25
182	63
183	27
184	59
185	5
186	1
187	3
194	16
195	10
196	20
197	10
198	4
199	80
200	12
201	90
202	35
203	168
204	24
205	9
206	1
207	1
208	3
209	9
210	4
211	8
212	2
213	4
214	1
215	4
216	1
221	1
222	2
223	2
224	3
225	4
226	438
227	47
228	439
229	46
230	20
231	1
235	1
237	1
249	1
253	2
254	26
255	6
256	28
257	4
258	1
267	1
279	1
280	9
281	141
282	333
283	183
284	333
285	48
286	16
287	2
