Mass Spectrum: (+-)-3-(2-Hydroxy-2-methylpropyl)-2,2-dimethylcyclopropane-trans-1-carboxylic acid
Formula: C10H18O3
CAS: 56941-78-7
Molecular weight: 186
m/z	intensity
15	13
17	6
18	2
26	2
27	61
28	26
29	63
30	2
31	91
32	3
37	1
38	5
39	113
40	22
41	252
42	25
43	469
44	22
45	30
46	2
47	2
48	1
49	8
50	4
51	16
52	7
53	55
54	14
55	129
56	197
57	46
58	21
59	999
60	43
61	5
62	9
63	22
64	1
65	21
66	13
67	221
68	50
69	135
70	36
71	58
72	6
73	19
74	2
77	19
78	4
79	35
80	9
81	113
82	318
83	370
84	36
85	131
86	22
87	22
88	3
89	1
91	21
92	4
93	21
94	8
95	300
96	32
97	38
98	6
99	7
100	15
101	62
102	4
103	2
105	7
106	2
107	73
108	21
109	182
110	153
111	113
112	37
113	523
114	38
115	6
117	1
119	1
121	5
122	15
123	134
124	49
125	167
126	20
127	527
128	476
129	38
130	19
131	22
132	2
135	21
136	3
137	1
139	2
140	10
141	1
149	1
150	26
151	9
152	2
153	279
154	28
155	2
167	1
168	74
169	19
170	2
171	5
186	1
