Mass Spectrum: Iron, [.mu.-(.eta.4:.eta.4-7-methylene-1,3,5-cycloheptatriene)]hexacarbonyldi-
Formula: C14H8Fe2O6
CAS: 56943-70-5
Molecular weight: 384
m/z	intensity
28	110
54	130
56	999
57	140
62	33
63	110
64	15
65	360
68	480
69	19
70	18
74	41
75	40
76	50
77	210
78	310
79	33
81	330
82	240
83	22
84	660
85	72
86	16
89	35
91	10
93	46
94	96
95	55
96	13
102	70
103	190
104	190
105	64
106	42
107	52
108	22
110	79
112	290
113	60
119	24
121	100
131	19
132	110
133	53
134	200
135	78
136	28
137	58
138	18
140	70
158	54
160	520
161	69
162	22
188	83
189	8
190	19
214	29
216	180
217	28
242	23
244	170
245	26
272	31
300	22
328	54
356	54
384	5
