Mass Spectrum: 1,3-Dioxane, 2-(chloromethyl)-
Formula: C5H9ClO2
CAS: 5695-72-7
Molecular weight: 136
m/z	intensity
27	111
28	226
29	160
30	8
31	502
32	5
33	2
36	2
39	17
40	6
41	152
42	46
43	116
44	14
45	29
47	4
48	2
49	48
50	97
51	17
52	32
55	6
56	1
57	54
58	5
59	167
60	5
61	4
62	2
63	1
70	1
71	1
72	1
73	14
75	8
76	4
77	127
78	30
79	79
80	11
81	15
86	1
87	999
88	43
89	6
93	1
95	2
100	0
106	6
107	11
108	2
109	3
134	1
135	58
136	2
137	18
138	1
