Mass Spectrum: Silane, dimethylbis[(trimethylsilyl)methyl]-
Formula: C10H28Si3
CAS: 5695-47-6
Molecular weight: 232
m/z	intensity
28	20
29	6
31	13
43	33
44	12
45	111
59	109
71	9
73	999
74	69
75	31
85	25
99	17
101	46
113	29
115	23
129	936
130	134
131	73
145	330
146	53
147	24
185	10
201	24
217	486
218	123
219	62
