Mass Spectrum: 1,2,4-Dithiazole, 3-benzoylimino-5-methylthio-
Formula: C10H8N2OS3
CAS: 56950-52-8
Molecular weight: 268
m/z	intensity
33	2
34	3
35	0
36	3
37	5
38	13
39	21
40	8
41	13
42	4
43	7
44	13
45	49
46	28
47	31
48	5
50	97
51	245
52	14
53	5
54	2
55	5
56	2
57	8
58	17
59	11
60	4
61	2
62	4
63	7
64	37
65	5
66	3
67	3
68	1
69	5
70	23
71	5
72	9
73	7
74	21
75	20
76	52
77	585
78	34
79	5
80	1
81	1
82	1
83	2
84	9
85	5
86	12
87	1
88	1
89	1
90	8
91	21
92	3
93	2
94	0
95	1
96	0
97	1
99	38
100	2
101	2
102	11
103	9
105	999
106	72
107	5
108	2
109	1
110	0
111	1
112	1
113	1
114	0
115	0
116	0
118	1
119	0
120	0
121	0
122	0
123	0
124	0
125	0
126	0
127	0
128	0
129	1
130	0
131	0
132	0
133	0
134	0
135	0
136	0
137	0
138	0
139	0
140	0
141	0
144	0
145	0
146	0
147	0
148	0
149	0
150	0
151	0
152	0
153	0
154	0
155	0
156	0
157	0
159	0
160	0
161	0
162	0
164	0
165	0
167	0
170	0
171	2
172	0
178	0
183	0
184	0
185	0
189	4
190	0
191	1
192	0
193	0
194	0
218	0
219	0
221	19
222	2
223	1
224	0
264	0
265	0
266	1
268	59
269	8
270	7
271	0
272	0
