Mass Spectrum: 1,2,7-Trimethyl-trans-decahydroquinolin-4-one
Formula: C12H21NO
CAS: 56971-47-2
Molecular weight: 195
m/z	intensity
41	391
42	999
43	130
44	56
51	18
52	40
53	175
54	177
55	433
56	320
57	199
58	354
65	61
66	48
67	207
68	222
69	105
70	97
77	93
78	18
79	88
80	43
81	180
82	229
83	63
84	228
85	19
91	29
93	51
94	95
95	254
96	182
97	33
98	17
108	62
109	27
110	195
111	18
123	54
124	203
125	42
138	806
139	377
140	47
152	232
153	29
179	30
180	847
181	76
194	30
195	163
196	22
197	1
