Mass Spectrum: 1,3,6-Tribromo-9-phenanthroic acid
Formula: C15H7Br3O2
CAS: 56988-56-8
Molecular weight: 456
m/z	intensity
41	167
42	20
43	213
44	57
45	475
47	80
49	22
50	182
51	210
55	115
57	65
60	81
61	102
62	172
63	144
67	21
68	71
69	47
71	27
73	174
74	345
75	148
76	21
78	60
79	24
80	24
81	509
84	195
85	134
86	385
87	999
95	89
97	48
98	374
99	191
100	24
109	149
110	67
111	102
121	124
122	317
123	190
124	94
126	57
127	212
134	81
135	133
136	85
146	22
147	39
148	67
149	53
150	20
161	341
162	210
163	335
164	21
166	84
167	121
168	51
172	21
173	172
174	909
175	273
176	38
188	118
189	217
190	35
191	77
252	55
253	96
254	104
255	101
256	91
283	20
298	91
300	82
323	50
332	151
334	243
335	19
336	152
413	30
415	21
416	19
439	57
441	118
443	131
445	46
456	307
457	55
458	773
459	147
460	719
461	97
462	267
463	25
