Mass Spectrum: 6-Propyl-2,3-dihydropyran-2,4-dione
Formula: C8H10O3
CAS: 5698-53-3
Molecular weight: 154
m/z	intensity
26	77
27	344
28	108
29	77
37	15
38	56
39	176
40	25
41	215
42	248
43	440
44	12
53	56
54	18
55	209
56	18
69	999
70	82
71	196
83	36
84	373
85	46
97	196
98	85
111	826
112	69
113	163
126	380
127	46
139	33
154	323
155	41
