Mass Spectrum: 2'-Nitro-2,4,4'-trichloro-.alpha.-phenylcinnamic acid
Formula: C15H8Cl3NO4
CAS: 56988-23-9
Molecular weight: 371
m/z	intensity
43	20
44	33
45	598
46	17
49	39
50	137
51	148
52	25
53	43
55	13
60	23
61	67
62	164
63	284
64	23
68	22
69	24
72	20
73	165
74	121
75	246
76	48
77	40
78	293
79	32
80	35
81	174
84	19
85	53
86	136
87	280
88	91
89	88
90	74
91	12
92	16
93	12
95	14
96	21
97	120
98	242
99	321
100	71
101	26
103	12
104	36
105	84
106	49
107	21
108	15
109	58
110	74
111	196
113	999
115	432
117	88
121	19
122	75
123	499
124	317
125	239
126	245
127	36
128	32
131	14
132	17
133	36
134	35
135	57
136	28
137	33
138	180
139	77
140	119
141	357
142	51
143	110
145	92
146	23
147	79
148	43
149	104
150	88
151	44
152	37
153	91
154	21
155	28
156	13
157	19
158	36
159	64
160	72
161	89
162	80
163	186
164	55
165	12
166	17
168	354
169	407
170	154
171	120
172	38
173	159
174	158
175	463
176	158
177	306
178	38
179	40
180	51
181	14
183	18
184	41
185	48
186	80
187	27
188	39
194	22
195	14
196	28
197	758
198	143
199	207
200	43
201	52
203	202
204	24
205	148
206	15
207	30
208	23
209	20
210	136
211	118
212	166
213	80
214	39
215	17
219	12
220	146
221	39
222	149
223	26
224	31
228	17
229	22
230	12
231	19
232	23
233	171
234	35
235	71
236	12
237	27
240	15
241	48
242	12
243	15
244	35
245	15
246	59
247	171
248	104
249	167
250	53
251	29
256	19
257	17
258	14
259	11
261	11
262	18
263	36
264	35
265	53
266	33
267	34
269	22
275	30
276	21
277	22
278	13
281	19
282	50
283	47
284	88
285	34
286	35
288	14
289	12
290	32
291	17
292	50
293	15
294	24
296	11
298	27
300	32
301	12
302	24
303	18
304	13
310	62
311	20
312	85
313	20
314	25
320	30
321	12
322	21
326	210
327	28
328	207
329	48
330	66
331	17
336	429
337	92
338	300
339	14
340	43
341	15
354	107
355	20
356	103
357	28
358	32
371	40
373	39
375	4
