Mass Spectrum: 5-Chloro-2-nitro-.alpha.-phenylcinnamic acid
Formula: C15H10ClNO4
CAS: 56988-10-4
Molecular weight: 303
m/z	intensity
41	11
42	4
43	4
44	1
45	156
46	5
47	47
48	19
49	208
50	100
51	281
52	49
53	21
54	1
55	6
56	1
57	2
60	2
61	16
62	75
63	225
64	29
65	35
66	6
67	2
68	3
69	13
70	13
72	2
73	46
74	88
75	179
76	88
77	630
78	73
79	70
80	6
82	95
83	24
84	104
85	16
86	100
87	87
88	95
89	119
90	123
91	32
92	9
93	9
94	8
95	1
96	6
97	37
98	106
99	67
100	39
101	28
102	38
103	11
104	18
105	999
106	101
107	37
108	1
109	7
110	53
111	48
112	23
113	35
114	21
115	38
116	4
117	2
118	8
119	4
120	2
121	6
122	11
123	40
124	20
125	429
126	377
127	195
128	109
129	29
130	1
133	2
134	4
135	20
136	9
137	19
138	69
139	72
140	31
141	6
142	0
143	0
145	2
146	1
147	2
148	1
149	27
150	92
151	92
152	66
153	759
154	74
155	263
156	23
157	2
160	3
161	4
162	13
163	85
164	77
165	206
166	82
167	54
168	20
169	2
170	3
173	7
174	49
175	59
176	262
177	89
178	69
179	29
180	24
181	8
182	6
184	1
185	1
186	8
187	2
188	5
189	2
190	7
191	6
192	2
193	4
194	16
195	52
196	7
197	1
198	2
199	33
200	7
201	22
202	7
203	4
204	2
205	1
206	3
207	11
208	3
210	9
211	14
212	24
213	97
214	47
215	35
216	15
217	2
222	1
223	0
226	5
227	3
228	11
229	9
230	145
231	23
232	45
233	6
238	0
239	4
240	98
241	19
242	96
243	20
244	21
245	4
250	0
251	1
255	0
256	3
257	48
258	81
259	38
260	27
261	6
269	1
270	0
274	1
286	18
287	3
288	6
289	0
303	39
304	7
305	12
306	1
