Mass Spectrum: 2H-Azepin-2-one, 3,3-dibromohexahydro-
Formula: C6H9Br2NO
CAS: 56987-35-0
Molecular weight: 269
m/z	intensity
14	1
15	9
17	1
25	2
26	44
27	111
28	149
29	36
30	168
31	3
32	1
36	2
37	9
38	22
39	165
40	35
41	207
42	389
43	42
44	15
46	18
49	3
50	17
51	40
52	35
53	132
54	79
55	136
56	101
57	7
58	10
59	165
60	4
61	2
62	2
63	5
64	5
65	48
66	45
67	999
68	102
69	50
70	75
71	4
72	2
73	1
75	2
76	1
77	3
78	9
79	100
80	312
81	102
82	310
83	92
84	49
85	24
86	1
91	4
92	9
93	32
94	8
95	6
96	4
97	1
98	13
99	2
103	2
104	2
105	77
106	17
107	80
108	15
109	26
110	81
111	62
112	54
113	8
117	6
118	4
119	65
120	22
121	59
122	17
123	2
131	7
132	9
133	56
134	17
135	47
136	9
137	1
140	1
142	2
144	1
145	18
146	9
147	139
148	13
149	122
150	7
160	9
161	14
162	142
163	28
164	135
165	14
170	1
171	1
172	3
173	3
174	3
175	2
176	1
184	180
185	11
186	349
187	23
188	173
189	38
190	791
191	118
192	780
193	83
194	6
197	30
198	6
199	61
200	12
201	30
202	6
211	1
213	4
215	2
224	14
225	3
226	29
227	4
228	14
229	2
240	2
241	1
242	4
243	2
244	2
245	1
269	168
270	17
271	329
272	35
273	162
274	16
275	1
