Mass Spectrum: 2'-Nitro-2,4,4'-tribromo-.alpha.-phenylcinnamic acid
Formula: C15H8Br3NO4
CAS: 56988-25-1
Molecular weight: 503
m/z	intensity
41	71
42	34
43	192
44	158
45	761
49	87
50	607
51	316
52	107
53	79
55	113
56	41
57	69
59	16
61	84
62	200
63	415
64	88
65	179
66	27
67	27
68	96
69	117
70	10
71	19
73	147
74	746
75	999
76	503
77	205
78	415
79	88
80	33
81	470
82	294
83	17
84	17
85	27
86	172
87	454
88	346
89	171
90	138
91	61
92	54
93	33
95	44
96	53
97	11
98	176
99	164
100	103
101	67
102	42
103	58
104	45
105	20
106	28
109	37
110	73
111	84
112	22
113	84
114	70
115	25
116	16
117	102
119	57
121	56
122	181
123	111
124	70
125	80
126	67
127	65
128	61
129	36
130	15
131	18
134	62
135	69
136	61
137	91
138	49
139	31
140	13
141	11
142	16
143	70
144	40
145	31
146	17
147	19
148	33
149	118
150	170
151	70
152	29
153	29
154	74
155	325
156	151
157	644
158	135
159	285
160	9
161	90
162	119
163	511
164	204
165	49
166	45
167	127
168	107
169	169
170	184
171	57
172	84
173	54
174	315
175	192
176	141
177	155
178	49
179	24
180	34
181	31
182	177
183	547
184	186
185	576
186	52
187	89
188	16
192	40
193	38
194	28
195	9
197	59
198	24
199	47
200	376
201	12
202	482
203	43
204	16
206	30
208	19
212	178
213	139
214	217
215	146
220	21
224	15
225	9
229	30
230	15
231	19
232	21
233	40
234	37
235	59
236	47
237	20
241	304
242	78
243	319
244	77
245	58
246	26
254	94
255	21
256	125
257	41
258	58
259	34
260	63
261	89
262	27
263	291
264	87
265	115
266	14
267	15
272	31
273	45
274	34
275	38
277	47
278	45
279	66
280	64
281	45
282	39
285	16
286	13
287	16
293	30
300	24
309	11
310	22
323	31
325	19
334	29
335	69
336	32
337	100
338	29
339	50
351	17
352	32
353	48
354	28
355	27
378	41
379	25
380	70
381	26
382	37
414	9
424	120
425	78
426	247
427	65
428	123
429	25
446	15
457	9
458	26
459	16
460	84
461	38
462	84
463	16
464	26
465	12
