Mass Spectrum: .alpha.-[5-Chloro-2-nitrophenyl]-2,4-dichlorocinnamic acid
Formula: C15H8Cl3NO4
CAS: 56988-26-2
Molecular weight: 371
m/z	intensity
45	719
46	19
49	44
50	128
51	133
52	14
53	43
55	10
60	9
61	59
62	143
63	288
64	28
65	9
68	22
69	15
73	226
74	165
75	308
76	51
78	351
79	31
80	28
81	130
82	38
84	26
85	57
86	109
87	208
88	68
89	81
90	87
91	16
92	18
97	104
98	204
99	298
100	76
101	20
102	9
103	11
104	18
105	49
106	42
107	19
109	82
110	117
111	235
113	999
114	32
115	340
116	34
117	16
118	19
121	23
123	495
124	239
125	320
126	169
127	63
128	25
131	15
132	15
133	28
134	35
135	57
136	35
137	48
138	164
139	57
140	22
141	523
143	194
145	112
147	139
148	40
149	92
150	74
151	37
153	139
154	17
155	53
156	9
157	23
158	34
159	61
160	56
161	82
162	84
163	253
164	75
166	22
168	188
169	226
170	97
171	99
172	33
173	262
174	132
175	517
176	139
177	219
178	29
179	33
180	50
182	18
183	22
184	42
185	43
186	63
187	23
188	34
193	11
194	19
195	14
197	933
198	58
199	447
200	75
201	63
203	158
205	111
207	51
208	32
209	30
210	177
211	120
212	144
213	64
214	32
215	16
220	139
221	29
222	103
223	17
224	24
226	16
227	12
228	22
229	20
230	11
231	15
232	17
233	136
234	23
235	94
236	25
237	14
240	12
241	55
242	15
243	24
244	54
245	15
246	91
247	161
248	95
249	127
250	43
251	25
255	15
256	17
257	14
258	11
261	10
262	39
263	53
264	49
265	49
266	26
267	26
269	25
271	21
273	22
274	11
275	30
276	30
277	20
278	20
279	12
280	12
281	24
282	84
283	40
284	102
285	25
286	39
288	9
290	98
291	18
292	106
293	20
294	31
296	11
298	28
300	22
301	8
302	16
303	11
304	10
310	53
311	21
312	61
313	19
314	22
319	11
320	38
321	15
322	27
323	10
326	239
327	29
328	234
329	44
330	88
331	15
332	13
336	514
337	70
338	357
339	48
340	53
341	17
354	198
356	197
357	34
358	63
359	12
371	35
373	35
374	10
375	15
