Mass Spectrum: 3,5,5'-Trichloro-2'-nitro-.alpha.-phenylcinnamic acid
Formula: C15H8Cl3NO4
CAS: 56988-31-9
Molecular weight: 371
m/z	intensity
41	6
43	15
45	551
46	19
49	39
50	119
51	119
52	7
53	47
55	12
60	13
61	47
62	128
63	262
64	27
65	9
68	25
69	13
73	198
74	169
75	313
76	45
78	365
79	27
80	13
81	148
82	17
84	24
85	56
86	96
87	197
88	59
89	84
90	91
91	14
92	25
93	11
95	13
97	93
98	181
99	278
100	52
101	31
102	10
103	6
104	29
105	39
106	41
107	18
109	89
110	114
111	196
113	999
115	367
116	32
117	12
118	14
119	5
121	20
123	347
124	223
125	286
126	154
127	70
128	20
130	14
132	8
133	30
134	29
135	44
136	29
137	13
138	201
139	52
140	65
141	495
143	190
145	124
147	136
148	32
149	85
150	61
151	32
152	26
153	32
154	24
155	27
156	13
157	17
158	17
159	33
160	38
161	55
162	66
163	194
164	66
165	13
166	12
168	165
169	355
170	55
171	150
173	182
174	169
175	228
176	96
177	109
178	18
180	49
182	18
183	18
184	36
185	35
186	44
187	16
188	21
189	5
192	6
194	15
195	10
197	797
199	448
200	59
201	50
203	60
205	35
207	28
208	28
209	26
210	135
211	100
212	113
213	51
214	28
215	10
219	9
220	76
221	19
222	53
223	15
224	9
226	12
227	7
228	14
229	9
230	7
231	10
232	8
233	102
234	30
235	69
236	17
237	25
238	6
239	5
240	6
241	5
244	52
245	7
246	122
247	146
248	101
249	108
250	41
251	21
252	6
255	7
256	6
257	7
259	5
260	6
262	23
263	50
264	21
265	37
267	28
269	33
271	23
273	14
274	8
275	14
276	14
277	9
278	9
279	11
280	5
281	37
282	59
283	40
284	63
285	20
286	24
289	5
290	8
291	5
292	8
294	10
296	11
297	5
298	33
300	33
301	11
302	9
307	19
308	8
309	20
310	62
311	19
312	71
313	22
314	20
315	6
321	5
323	7
325	25
326	128
327	43
328	150
329	32
330	57
331	9
332	7
339	6
354	77
355	10
356	75
357	32
358	10
371	68
373	66
374	20
375	14
