Mass Spectrum: 3-Cyclohexen-1-carboxaldehyde, 3-methyl-
Formula: C8H12O
CAS: 56980-32-6
Molecular weight: 124
m/z	intensity
41	172
42	42
43	999
44	34
45	29
46	2
47	3
48	1
50	30
51	27
52	18
53	66
54	11
55	153
56	35
57	44
58	107
59	45
60	2
61	4
62	2
63	9
64	6
65	40
66	27
67	90
68	110
69	85
70	14
71	378
72	20
73	3
74	3
76	2
77	41
78	12
79	69
80	11
81	91
82	15
83	138
84	87
85	36
87	6
88	1
89	6
90	1
91	33
94	9
95	48
96	5
97	71
98	18
101	10
102	2
104	1
105	3
108	28
109	108
110	13
123	57
124	284
125	23
126	6
