Mass Spectrum: Acetamide, N-(aminoiminomethyl)-
Formula: C3H7N3O
CAS: 5699-40-1
Molecular weight: 101
m/z	intensity
33	1
34	0
36	0
38	5
39	11
40	36
41	65
42	223
43	999
44	91
45	113
46	1
50	1
51	1
52	0
53	11
54	3
55	13
56	7
57	7
58	21
59	104
60	56
61	2
65	0
66	0
67	2
69	138
70	6
71	3
72	5
73	54
74	2
77	1
79	1
81	1
82	1
83	2
86	508
87	14
88	1
99	1
101	64
102	3
