Mass Spectrum: 3-Amino-4-methyl-pentanoic acid
Formula: C6H13NO2
CAS: 5699-54-7
Molecular weight: 131
m/z	intensity
38	8
39	65
40	47
41	108
42	141
43	318
44	73
45	37
46	115
50	3
51	6
52	5
53	14
54	16
55	132
56	62
57	27
60	15
67	6
68	8
69	30
70	644
71	34
72	100
73	9
74	4
77	4
84	7
86	4
87	39
88	999
89	37
90	4
98	11
106	3
112	4
130	3
