Mass Spectrum: Pentanoic acid, 2-(aminooxy)-
Formula: C5H11NO3
CAS: 5699-55-8
Molecular weight: 133
m/z	intensity
33	70
41	390
43	640
44	270
45	300
55	999
57	140
59	150
71	110
72	130
73	530
83	160
88	65
101	77
133	7
