Mass Spectrum: D(17a)-Homo-C,18-dinorcard-20(22)-enolide, 14-hydroxy-17a-methylene-3-oxo-, (5.beta.)-
Formula: C23H30O4
CAS: 56993-82-9
Molecular weight: 370
m/z	intensity
41	967
42	351
43	946
44	946
45	221
51	140
53	533
54	171
55	999
56	262
57	351
65	293
66	144
67	648
68	269
69	442
70	135
71	163
77	638
78	228
79	728
80	190
81	749
82	188
83	280
84	103
85	104
91	876
92	224
93	501
94	224
95	519
96	280
97	293
98	120
103	119
104	119
105	668
106	293
107	519
108	402
109	457
110	280
111	233
115	221
116	113
117	283
118	153
119	389
120	181
121	305
122	203
123	218
124	203
125	156
128	203
129	292
130	240
131	330
132	240
133	302
134	147
135	178
137	132
138	116
141	194
142	163
143	305
144	194
145	383
146	188
147	309
148	191
149	191
150	122
151	122
153	253
154	221
155	268
156	122
157	246
158	125
159	202
160	123
161	271
162	107
163	162
164	113
165	162
168	162
169	120
170	143
171	141
172	131
174	147
179	250
183	140
185	144
187	129
192	342
193	132
197	120
199	106
200	106
202	166
213	128
215	175
216	116
226	113
227	129
228	234
242	150
281	110
282	240
295	150
319	103
337	179
338	103
339	163
340	106
352	626
353	302
370	76
371	36
