Mass Spectrum: Cetrimonium Bromide
Formula: C19H42BrN
CAS: 57-09-0
Molecular weight: 363
m/z	intensity
15	16
27	7
28	4
29	20
30	7
39	5
40	1
41	44
42	20
43	56
44	15
45	12
46	10
53	2
54	2
55	37
56	11
57	34
58	999
59	39
67	3
68	2
69	17
70	8
71	15
72	5
73	1
79	3
81	3
82	2
83	8
84	13
85	7
91	2
92	1
93	5
94	27
95	4
96	25
97	4
98	2
99	1
100	2
111	1
113	1
114	3
128	2
135	7
137	7
142	1
149	1
151	1
254	1
268	9
269	19
270	4
