Mass Spectrum: Urea
Formula: CH4N2O
CAS: 57-13-6
Molecular weight: 60
m/z	intensity
12	4
13	9
14	4
15	11
16	172
17	999
18	25
21	4
22	6
26	5
27	18
28	42
29	34
30	10
31	33
32	2
40	2
41	17
42	41
43	156
44	807
45	15
46	2
60	926
61	20
62	3
