Mass Spectrum: n-Hexadecanoic acid
Formula: C16H32O2
CAS: 57-10-3
Molecular weight: 256
m/z	intensity
25	8
27	156
29	414
30	13
31	26
33	1
36	2
37	1
38	3
39	94
40	17
41	749
42	167
43	999
44	16
45	132
46	5
47	3
50	2
51	4
52	4
53	40
54	52
55	616
56	147
57	634
58	30
59	43
60	838
61	218
62	10
63	5
65	7
66	4
67	60
68	48
69	310
70	94
71	285
72	17
73	905
74	73
75	6
76	2
77	4
78	3
79	12
80	8
81	44
82	45
83	181
84	84
85	153
86	12
87	116
88	13
89	9
90	1
91	3
92	2
93	6
94	3
95	24
96	28
97	121
98	80
99	51
100	6
101	59
102	16
103	2
105	1
107	9
108	4
109	11
110	12
111	50
112	24
113	30
114	6
115	80
116	25
117	2
119	2
120	1
121	6
122	2
123	4
124	6
125	22
126	10
127	18
128	4
129	210
130	21
131	2
133	4
134	2
135	4
137	5
138	5
139	11
140	6
141	13
142	2
143	19
144	6
149	3
152	3
153	6
154	4
155	7
157	47
158	9
163	1
166	4
167	3
168	4
171	43
172	6
177	2
178	2
185	35
186	5
194	15
195	2
196	10
197	8
199	13
200	2
201	1
213	89
214	14
220	3
227	17
228	3
239	3
256	158
257	28
258	3
