Mass Spectrum: Sulfinpyrazone
Formula: C23H20N2O3S
CAS: 57-96-5
Molecular weight: 404
m/z	intensity
26	18
27	50
36	8
37	20
38	32
39	160
40	69
41	42
42	5
43	5
45	55
48	6
49	5
50	85
51	289
52	38
53	40
54	17
55	26
57	9
58	9
59	6
60	5
61	10
62	19
63	53
64	75
65	124
66	57
68	42
69	55
70	7
71	8
73	10
74	26
75	19
76	25
77	999
78	359
79	29
82	9
83	8
84	18
89	6
90	6
91	123
92	18
93	47
94	5
95	21
97	25
103	23
104	32
105	230
106	20
107	7
108	11
109	92
110	115
111	14
112	6
115	14
116	10
117	35
118	24
119	74
120	15
123	9
125	98
126	136
127	18
128	16
129	15
130	124
131	84
132	16
139	10
143	9
144	21
151	5
152	21
153	26
154	24
158	37
159	33
160	11
167	15
168	9
181	17
182	20
183	65
184	18
185	6
186	23
187	10
195	12
209	13
210	20
211	14
249	19
250	6
252	47
253	10
263	11
264	12
265	22
266	5
278	560
279	145
280	17
388	11
404	15
