Mass Spectrum: 3.alpha.,6.alpha.-Dihydroxy-5.beta.-pregnan-20-one
Formula: C21H34O3
CAS: 570-78-5
Molecular weight: 334
m/z	intensity
41	150
43	999
45	35
47	9
49	22
51	13
53	66
55	195
57	59
58	5
59	4
65	16
67	133
68	34
69	54
71	101
72	1
73	2
77	42
78	13
79	168
81	160
83	35
84	47
85	41
86	10
88	2
90	0
91	97
93	93
94	15
95	179
97	37
98	1
99	6
103	4
105	87
106	32
107	88
108	30
109	38
110	2
111	5
112	1
113	1
115	6
116	5
117	28
118	15
119	38
120	12
121	43
122	37
123	23
124	13
125	15
126	1
127	0
128	4
129	8
130	3
131	40
132	20
133	55
134	21
135	42
137	9
138	2
139	3
141	5
142	1
143	24
144	21
145	50
146	6
147	26
148	5
149	20
150	5
151	8
152	2
153	1
154	0
155	4
156	1
157	20
158	13
159	54
160	22
161	37
162	3
163	12
164	3
165	3
167	1
169	11
170	1
171	26
172	9
173	21
174	5
175	14
176	4
177	12
178	10
179	3
181	2
183	6
184	1
185	21
186	8
187	15
188	5
189	11
190	10
191	7
192	3
193	2
194	0
195	3
196	0
197	7
198	3
199	16
200	3
201	8
202	5
203	8
204	15
205	2
206	2
207	0
209	4
211	7
213	78
214	18
215	23
216	6
217	6
218	6
219	2
220	2
221	1
223	4
224	1
225	17
226	4
227	8
228	21
229	9
230	4
231	28
232	9
233	7
234	0
235	1
237	0
238	1
239	4
240	13
241	8
242	2
243	15
244	9
245	4
246	18
247	5
248	0
249	0
251	6
252	1
253	4
254	2
255	22
256	7
257	8
258	19
259	5
260	0
261	6
262	0
264	2
265	10
266	2
269	4
270	3
271	15
272	6
273	7
274	1
280	5
281	3
283	30
284	7
285	1
287	0
288	0
297	0
298	59
299	16
301	50
302	11
314	0
315	0
316	59
317	15
318	1
319	5
334	1
335	0
