Mass Spectrum: 5.beta.-Pregnane-3.alpha.,17.alpha.-diol-20-one
Formula: C21H34O3
CAS: 570-52-5
Molecular weight: 334
m/z	intensity
41	225
42	33
43	999
44	60
45	32
49	6
51	6
53	76
54	31
55	316
56	26
57	226
58	43
59	35
65	39
66	15
67	285
68	66
69	133
70	28
71	68
72	7
77	116
78	31
79	304
80	53
81	273
82	48
83	133
84	39
85	23
87	82
88	7
91	281
92	54
93	293
94	90
95	232
96	35
97	72
98	8
99	7
100	123
101	7
103	12
104	10
105	251
106	69
107	280
108	92
109	144
110	22
111	36
115	19
116	8
117	63
118	21
119	163
120	73
121	180
122	64
123	62
124	10
125	10
128	12
129	44
130	11
131	99
132	21
133	188
134	70
135	149
136	39
137	32
139	8
143	30
144	11
145	157
146	42
147	248
148	61
149	77
150	17
151	19
157	29
158	13
159	149
160	53
161	177
162	44
163	44
164	8
165	16
169	6
171	25
172	16
173	149
174	61
175	82
176	35
177	20
179	9
183	7
185	35
186	11
187	90
188	35
189	32
190	7
191	18
197	7
199	73
200	20
201	114
202	29
203	30
204	8
211	8
213	74
214	27
215	409
216	104
217	59
218	10
219	15
225	6
226	7
227	23
228	99
229	403
230	178
231	39
239	7
241	8
242	51
243	20
244	12
246	8
253	8
255	561
256	113
257	23
262	21
265	9
271	9
273	286
274	54
275	7
283	16
291	205
292	40
298	31
299	6
300	24
301	24
316	156
317	35
334	348
335	74
