Mass Spectrum: 1H-Purine-2,6-dione, 3,7-dihydro-8-benzylamino-7-(2-hydroxyethyl)-1,3-dimethyl-
Formula: C16H19N5O3
CAS: 57000-06-3
Molecular weight: 329
m/z	intensity
34	0
36	0
38	1
39	16
40	27
41	17
42	43
43	19
44	16
45	39
46	0
50	3
51	10
52	4
53	13
54	16
55	23
56	14
57	19
58	8
59	0
61	0
62	1
63	10
65	77
66	12
67	50
68	24
69	15
70	14
72	9
73	0
74	0
75	0
76	2
77	12
78	6
79	11
80	8
81	36
82	222
83	23
84	2
85	1
86	1
87	6
89	18
91	999
92	67
93	7
94	28
95	15
96	6
97	5
98	3
99	3
100	1
102	1
103	7
104	13
105	6
106	19
107	6
108	6
109	44
110	12
111	30
112	5
113	5
114	1
115	2
116	7
117	16
118	5
119	1
120	2
121	3
122	8
123	13
124	6
125	2
126	1
127	3
128	1
129	4
130	3
131	19
132	2
133	2
134	5
135	9
136	5
137	7
138	11
139	13
140	1
141	3
142	7
143	2
144	0
145	1
146	0
147	0
148	1
149	4
150	3
151	20
152	18
153	30
154	4
155	4
156	5
157	2
158	1
159	0
160	0
161	1
162	0
163	5
164	1
165	1
166	3
167	13
168	8
169	2
170	1
171	4
172	3
173	0
174	0
176	1
177	0
178	0
179	1
180	9
181	27
182	3
183	1
184	1
185	2
186	0
188	0
192	0
193	3
194	59
195	48
196	20
197	9
198	2
199	3
200	2
201	1
205	1
206	4
207	4
208	101
209	15
210	2
211	1
212	0
213	2
214	0
215	0
220	44
221	7
222	2
223	5
224	1
225	3
226	0
227	1
228	1
229	0
232	0
234	0
238	51
239	8
240	1
241	1
242	0
243	2
252	0
255	0
256	0
257	1
258	1
268	2
269	2
270	0
271	2
272	0
281	1
282	4
283	3
284	15
285	54
286	19
287	2
296	1
297	0
298	6
299	4
300	1
301	0
309	0
310	3
311	24
312	6
313	0
327	3
328	8
329	324
330	63
331	7
332	0
