Mass Spectrum: 4-i-Propylcarbamoyl-1-hydroxy-2,2,5,5-tetramethyl-3-imidazoline-3-oxide
Formula: C11H21N3O3
CAS: 57006-62-9
Molecular weight: 243
m/z	intensity
30	35
31	38
32	412
36	11
37	10
38	18
39	141
40	46
41	449
42	270
43	999
44	106
45	8
46	10
47	5
48	2
49	2
50	4
51	6
52	15
53	31
54	51
55	86
56	185
57	296
58	240
59	48
60	35
61	2
62	2
64	4
65	3
66	27
67	70
68	292
69	88
70	93
71	113
72	21
73	131
74	520
75	21
76	2
77	3
79	3
80	9
81	7
82	98
83	35
84	183
85	83
86	96
87	16
91	2
93	4
94	7
95	7
96	9
97	10
98	41
109	28
110	30
111	178
112	25
113	14
136	16
137	11
138	9
139	8
140	2
141	11
142	25
143	3
149	9
150	2
151	3
152	5
153	62
154	14
155	17
156	3
157	6
169	192
170	520
171	82
172	8
178	4
181	3
184	7
185	21
186	2
194	7
195	8
196	5
197	5
210	4
211	7
212	8
226	15
227	16
228	22
229	3
242	4
243	217
244	33
245	4
