Mass Spectrum: Propanoic acid, 2,2-dimethyl-, 2,4-dinitrophenyl ester
Formula: C11H12N2O6
CAS: 57025-45-3
Molecular weight: 268
m/z	intensity
33	11
37	2
39	61
41	259
43	8
44	1
45	0
46	1
50	6
51	11
53	11
57	999
62	21
63	21
64	2
65	0
66	0
67	0
69	25
70	5
71	9
74	4
75	3
77	1
78	1
79	8
80	0
83	0
85	125
88	0
91	3
93	4
98	0
99	0
107	0
120	0
138	0
154	0
167	1
168	1
184	0
