Mass Spectrum: Butanedioic acid, 2-methyl-2-(1-methylethyl)-
Formula: C8H14O4
CAS: 5703-04-8
Molecular weight: 174
m/z	intensity
27	99
28	2
29	87
30	1
31	25
39	213
41	641
42	90
43	437
44	23
45	113
50	17
51	22
52	11
53	62
54	19
55	237
56	95
57	197
58	33
59	83
60	44
61	15
63	5
65	44
66	7
67	81
68	59
69	606
70	120
71	128
72	13
73	57
74	16
75	11
76	35
77	22
78	5
79	16
80	3
81	49
82	42
83	193
84	369
85	111
86	734
87	250
88	30
89	2
91	18
93	24
94	24
95	51
96	27
97	72
98	18
99	36
100	20
101	18
102	1
103	5
104	42
105	24
107	11
109	25
110	14
111	91
112	29
113	105
114	999
115	204
116	14
121	21
122	9
123	17
124	4
125	18
126	4
127	14
128	105
129	94
130	27
131	21
132	124
133	12
155	8
156	9
157	30
158	2
159	1
173	12
