Mass Spectrum: Azetidine, N-dimethylcarbamoyl-
Formula: C6H12N2O
CAS: 57031-53-5
Molecular weight: 128
m/z	intensity
26	12
27	39
28	93
29	21
30	17
39	15
40	10
41	93
42	103
43	40
44	204
45	35
51	4
54	10
55	11
56	444
57	43
58	58
69	8
70	15
71	7
72	999
73	56
74	6
77	5
84	148
85	10
99	27
100	12
101	92
102	7
113	18
127	7
128	402
129	33
