Mass Spectrum: Nonyl chloroformate
Formula: C10H19ClO2
CAS: 57045-82-6
Molecular weight: 206
m/z	intensity
14	4
15	11
16	3
17	1
18	3
26	10
27	198
28	86
29	339
30	8
31	10
32	2
35	3
36	10
37	1
38	5
39	133
40	29
41	685
42	384
43	964
44	34
45	5
49	1
50	3
51	8
52	4
53	38
54	77
55	923
56	999
57	453
58	19
59	2
62	1
63	122
64	2
65	40
66	5
67	67
68	204
69	584
70	778
71	276
72	14
73	1
75	2
76	1
77	5
78	1
79	4
80	1
81	15
82	123
83	412
84	398
85	133
86	8
87	1
89	1
91	21
92	2
93	11
95	5
96	27
97	304
98	289
99	24
100	2
101	1
105	5
107	2
111	10
112	2
113	1
119	8
121	5
123	1
126	44
127	5
129	2
135	4
137	3
141	1
162	1
167	3
168	1
171	4
190	2
191	1
203	7
204	1
205	2
206	1
