Mass Spectrum: 1H-Tetrazole, 1-(4-bromophenyl)-
Formula: C7H5BrN4
CAS: 57058-01-2
Molecular weight: 224
m/z	intensity
32	139
37	121
38	200
39	250
44	21
45	29
49	28
50	279
51	64
52	28
58	15
61	50
62	107
63	472
64	157
65	29
73	21
74	100
75	164
76	141
77	14
87	11
88	20
89	27
90	999
91	77
116	12
117	429
118	36
119	10
155	70
157	68
169	173
170	14
171	170
172	12
196	464
197	34
198	457
199	32
224	30
226	30
