Mass Spectrum: 4-Pyrimidinamine, 5-bromo-2-methoxy-N,N-dimethyl-
Formula: C7H10BrN3O
CAS: 57054-81-6
Molecular weight: 231
m/z	intensity
28	130
41	50
42	410
43	120
44	999
52	70
53	50
66	60
67	80
80	50
81	90
94	50
95	70
109	50
122	70
173	140
175	140
187	90
188	50
189	120
202	690
203	70
204	670
205	50
216	220
218	200
231	400
232	60
233	390
