Mass Spectrum: 3-Chlorobenzaldehyde thiocarbamoylhydrazone
Formula: C8H8ClN3S
CAS: 5706-79-6
Molecular weight: 213
m/z	intensity
25	3
26	7
27	16
28	3
29	11
30	9
31	53
38	9
39	32
40	2
41	5
42	15
43	999
44	12
45	17
46	7
47	6
48	12
49	3
50	53
51	37
52	6
53	1
54	1
55	3
56	1
57	6
58	2
59	22
60	433
61	16
62	30
63	68
64	9
65	23
66	3
67	2
68	1
69	3
70	2
71	3
72	2
73	17
74	35
75	252
76	835
77	34
78	19
79	0
80	0
81	1
82	0
83	2
84	4
85	14
86	5
87	8
88	4
89	131
90	54
91	24
92	53
93	4
94	1
95	1
96	0
97	3
98	1
99	25
100	11
101	10
102	133
103	10
104	4
105	1
106	0
107	1
108	2
109	3
110	5
111	258
112	33
113	54
114	10
115	2
116	2
117	31
118	45
119	73
120	5
121	1
122	1
123	7
124	15
125	24
126	30
127	133
128	15
129	39
130	2
131	0
132	0
133	1
134	2
135	1
136	2
137	85
138	321
139	50
140	78
141	8
142	5
143	1
144	1
145	0
146	0
147	0
148	0
149	4
150	1
151	1
152	5
153	124
154	50
155	42
156	14
157	3
158	1
159	0
161	0
162	0
163	0
165	0
167	0
168	0
169	4
170	5
171	2
172	1
173	0
174	0
178	1
179	3
180	8
181	1
182	6
183	0
184	1
185	0
190	0
195	0
196	46
197	5
198	15
199	1
200	1
210	0
211	0
212	8
213	435
214	33
215	143
216	11
217	3
