Mass Spectrum: Hydrazinecarbothioamide, 2-[(3-nitrophenyl)methylene]-
Formula: C8H8N4O2S
CAS: 5706-76-3
Molecular weight: 224
m/z	intensity
26	7
27	25
28	13
29	17
30	20
31	27
33	7
34	3
37	7
38	21
39	91
40	7
41	34
42	22
43	999
44	25
45	26
46	6
47	11
48	21
49	4
50	131
51	75
52	27
53	10
54	6
55	27
56	12
57	45
58	5
59	45
60	443
61	26
62	53
63	135
64	52
65	180
66	20
67	11
68	7
69	25
70	8
71	23
73	11
74	60
75	128
76	623
77	79
78	31
79	8
80	8
81	11
82	5
83	18
84	4
85	14
86	6
87	12
88	9
89	327
90	93
91	82
92	92
93	14
94	3
95	8
96	3
97	13
98	3
99	3
100	3
101	3
102	187
103	156
104	44
105	29
106	6
107	4
108	3
109	6
110	2
111	9
113	4
115	2
116	4
117	67
118	358
119	46
120	6
121	9
122	19
123	5
125	8
127	2
129	4
131	4
132	10
133	5
134	9
135	16
136	7
137	3
139	3
140	12
141	5
145	4
147	30
148	45
149	115
150	19
151	30
152	3
164	56
165	13
166	2
167	19
168	2
177	10
181	1
190	9
191	8
192	2
193	8
194	7
207	34
208	7
209	2
222	4
223	22
224	837
225	96
226	46
227	5
