Mass Spectrum: 2-Propenoic acid, 2-methyl-, 3-[tris(2-methoxyethoxy)silyl]propyl ester
Formula: C16H32O8Si
CAS: 57069-48-4
Molecular weight: 380
m/z	intensity
15	3
29	52
31	29
39	82
40	28
41	425
42	20
43	35
45	550
46	7
58	56
59	91
60	2
61	19
63	37
68	21
69	999
70	52
74	4
75	11
76	25
77	203
78	5
79	16
82	3
85	12
86	3
87	38
89	24
90	40
91	277
92	19
93	97
99	17
100	2
101	31
102	2
103	62
104	39
105	87
106	8
107	254
108	14
109	6
113	2
115	102
116	17
117	347
118	40
119	189
120	20
121	463
122	76
123	39
126	4
129	15
130	5
131	150
132	17
133	104
134	15
135	170
136	7
137	2
144	4
145	21
147	49
148	2
149	17
151	8
159	58
160	5
161	480
162	114
163	93
165	86
175	219
176	49
177	24
195	1
209	86
219	43
253	673
254	96
255	31
263	48
264	4
305	149
306	24
