Mass Spectrum: Benzaldehyde, o-chloro-, 3-thiosemicarbazone
Formula: C8H8ClN3S
CAS: 5706-78-5
Molecular weight: 213
m/z	intensity
26	4
27	18
28	2
29	7
30	2
31	4
33	9
34	5
35	2
37	9
38	18
39	68
40	4
41	13
42	29
43	999
44	28
45	10
46	4
47	12
48	22
49	4
50	82
51	72
52	14
53	0
54	0
55	9
56	6
57	19
58	5
59	38
60	376
61	26
62	49
63	107
64	19
65	49
66	0
67	0
68	0
69	1
70	0
71	1
72	0
73	23
74	45
75	198
76	811
77	59
78	33
79	0
80	0
81	0
82	0
83	0
84	0
85	19
86	9
87	12
88	7
89	202
90	74
91	28
92	188
93	14
94	0
95	0
96	0
97	0
98	0
99	25
100	10
101	16
102	242
103	19
104	6
105	0
106	0
107	0
108	0
109	0
110	0
111	79
112	32
113	30
114	9
115	0
116	0
117	32
118	56
119	410
120	32
121	8
122	5
123	5
124	13
125	20
126	26
127	21
128	8
129	6
130	0
131	0
132	0
133	0
134	6
135	7
136	10
137	56
138	366
139	52
140	143
141	13
142	10
143	0
144	0
145	0
146	5
147	0
148	0
149	1
150	0
151	0
152	0
153	76
154	12
155	27
156	4
157	0
158	0
161	44
162	4
163	3
170	3
172	0
178	47
179	8
180	15
181	0
182	8
183	0
184	0
196	12
197	0
198	4
210	2
211	0
212	9
213	405
214	43
215	153
216	14
217	6
