Mass Spectrum: Metazoxolone
Formula: C10H8ClN3O2
CAS: 5707-73-3
Molecular weight: 237
m/z	intensity
12	1
14	1
15	10
16	1
25	1
26	9
27	18
28	16
29	3
30	14
31	1
35	1
36	3
37	17
38	51
39	96
40	37
41	51
42	64
43	4
44	59
45	22
47	3
48	1
49	16
50	52
51	47
52	50
53	17
54	16
55	2
56	1
57	1
58	1
60	4
61	25
62	71
63	265
64	115
65	54
66	10
67	49
68	3
69	11
70	12
71	2
72	7
73	80
74	33
75	143
76	27
77	12
78	2
79	1
80	2
81	2
82	2
83	2
84	5
85	16
86	6
87	11
88	18
89	85
90	459
91	106
92	15
93	1
96	1
97	8
98	69
99	236
100	33
101	77
102	9
103	2
104	1
105	1
109	1
110	2
111	187
112	20
113	61
114	9
115	15
116	9
117	20
118	2
122	1
123	9
124	16
125	999
126	115
127	368
128	39
129	16
130	2
131	2
132	1
137	2
138	3
139	58
140	6
141	19
142	2
143	2
144	1
149	1
150	1
151	3
152	28
153	4
154	9
155	1
156	1
162	1
163	1
164	1
165	2
166	5
167	4
168	2
169	1
171	1
177	2
178	1
179	2
180	1
181	1
184	1
192	3
193	2
194	2
195	1
196	47
197	5
198	15
199	2
202	1
205	1
219	164
220	21
221	53
222	6
237	199
238	24
239	65
240	8
241	1
