Mass Spectrum: 24-Norchol-22-ene-3,7-diol, diacetate, (3.alpha.,5.beta.,7.alpha.)-
Formula: C27H42O4
CAS: 57071-90-6
Molecular weight: 430
m/z	intensity
103	64
104	45
105	999
106	381
107	478
108	97
109	191
110	25
115	127
116	53
117	236
118	118
119	389
120	90
121	157
122	37
123	63
127	35
128	108
129	159
130	70
131	383
132	91
133	287
134	85
135	122
136	28
137	46
141	115
142	70
143	220
144	71
145	449
146	286
147	127
148	89
153	31
154	25
155	131
156	47
157	190
158	75
159	325
160	101
161	173
162	35
163	46
165	46
167	40
168	28
169	80
171	92
172	57
173	137
174	73
175	38
178	24
179	26
181	28
183	75
184	25
185	102
186	34
187	62
189	62
191	34
193	32
197	61
198	35
199	138
200	55
201	313
202	87
203	38
207	116
208	34
211	40
213	168
214	55
215	55
216	36
225	36
227	41
228	118
229	60
239	126
240	101
241	58
251	33
253	144
254	78
255	224
256	126
267	26
268	42
281	47
282	26
293	31
295	182
296	59
310	142
311	50
