Mass Spectrum: Tricyclo[6.3.1.0(2,5)-]dodecan-1-ol, 4,4,8-trimethyl-, acetate, [1R-(1.alpha.,2.alpha.,5.beta.,8.beta.)]-
Formula: C17H28O2
CAS: 57082-24-3
Molecular weight: 264
m/z	intensity
15	1
26	1
27	55
28	15
29	89
31	3
38	3
39	176
40	40
41	682
42	65
43	999
44	24
45	8
50	5
51	37
52	23
53	216
54	48
55	680
56	117
57	47
58	8
59	24
60	3
61	31
62	2
63	9
64	6
65	116
66	43
67	428
68	98
69	496
70	52
71	35
72	6
73	2
74	2
77	267
78	63
79	423
80	98
81	455
82	183
83	184
84	30
85	27
86	50
87	4
88	1
89	5
90	2
91	372
92	110
93	417
94	113
95	393
96	93
97	76
98	20
99	6
100	1
101	9
102	3
103	28
104	15
105	344
106	112
107	305
108	186
109	258
110	62
111	841
112	70
113	7
115	31
116	12
117	56
118	29
119	373
120	198
121	900
122	227
123	469
124	75
125	37
126	8
127	18
128	12
129	13
130	6
131	33
132	17
133	402
134	178
135	251
136	74
137	237
138	44
139	16
141	3
142	2
143	3
145	20
146	11
147	165
148	418
149	130
150	98
151	93
152	11
153	22
154	4
159	9
160	9
161	933
162	174
163	46
164	9
165	79
166	336
167	41
168	4
173	4
174	2
175	151
176	51
177	13
178	6
179	89
180	21
182	1
187	4
189	734
190	111
191	14
192	2
193	82
194	10
203	12
204	316
205	57
206	6
207	26
208	93
209	13
210	2
220	1
221	14
222	28
223	5
249	3
250	1
264	6
