Mass Spectrum: 2H-Pyran, tetrahydro-4-methyl-2,6-diphenyl-
Formula: C18H20O
CAS: 57094-09-4
Molecular weight: 252
m/z	intensity
32	159
38	23
39	315
40	46
41	298
42	56
43	83
44	36
50	113
51	441
52	136
53	123
54	20
55	66
57	36
62	23
63	109
64	46
65	242
69	96
75	40
76	83
77	648
78	492
79	182
89	106
90	50
91	507
92	116
93	14
101	19
102	96
103	471
104	999
105	758
106	89
107	56
117	38
118	111
119	126
130	66
131	275
132	199
133	33
137	110
138	17
139	27
141	23
142	20
143	66
144	19
145	83
146	189
152	11
156	40
157	10
158	12
159	50
160	40
161	17
174	109
175	18
178	9
202	10
203	8
205	8
206	8
208	38
210	12
215	12
217	13
219	10
222	9
232	22
233	10
234	20
235	8
237	27
238	14
250	20
252	93
253	21
