Mass Spectrum: 1-Chloro-1-ethyl-1-silacyclopentane
Formula: C6H13ClSi
CAS: 57099-95-3
Molecular weight: 148
m/z	intensity
25	9
26	88
27	319
28	43
29	165
30	11
31	29
33	6
35	35
36	101
37	6
38	59
39	152
40	15
41	99
42	59
43	111
44	76
45	25
49	7
50	15
51	43
52	15
53	133
54	61
55	144
56	61
57	75
58	17
59	25
60	3
61	6
62	6
63	999
64	107
65	558
66	75
67	93
68	9
69	29
76	9
77	49
78	81
79	115
80	38
81	55
82	24
83	248
84	41
85	56
87	11
89	16
90	75
91	319
92	751
93	268
94	268
95	51
99	9
105	13
106	18
107	17
108	11
113	69
114	6
115	12
117	95
118	18
119	788
120	872
121	341
122	265
123	49
124	15
148	249
149	38
150	125
151	15
