Mass Spectrum: Oxacyclotetradecan-2-one, 13-methyl-
Formula: C14H26O2
CAS: 57092-32-7
Molecular weight: 226
m/z	intensity
26	27
27	265
28	84
29	397
30	10
31	39
37	1
38	5
39	218
40	45
41	999
42	302
43	381
44	7
45	23
46	2
47	1
48	1
49	0
50	2
51	6
52	7
53	75
54	111
55	892
56	642
57	329
58	39
59	23
60	48
61	13
62	1
63	2
65	13
66	15
67	192
68	189
69	572
70	247
71	96
72	106
73	91
74	15
75	3
76	1
77	5
78	4
79	40
80	31
81	202
82	213
83	303
84	247
85	99
86	13
87	26
88	5
89	1
90	0
91	10
92	1
93	25
94	31
95	127
96	160
97	220
98	267
99	38
100	25
101	34
102	5
103	1
106	0
107	16
108	36
109	56
110	105
111	149
112	78
113	28
114	43
115	20
116	11
117	1
118	0
119	7
120	2
121	22
122	25
123	48
124	81
125	61
126	26
127	33
128	11
129	14
130	9
131	1
132	1
133	9
134	16
135	28
136	9
137	34
138	26
139	38
140	14
141	11
142	4
143	10
144	3
145	1
147	11
148	9
149	16
150	6
151	22
152	52
153	78
154	20
155	7
156	2
157	3
158	1
161	4
162	1
163	2
164	22
165	32
166	41
167	29
168	11
169	5
170	11
171	40
172	3
173	0
175	3
177	1
178	6
179	9
180	7
181	4
182	3
183	11
184	4
185	2
190	8
191	2
192	1
193	9
194	2
195	2
196	26
197	4
198	16
199	1
207	1
208	59
209	9
210	1
211	5
224	3
225	0
226	25
227	4
