Mass Spectrum: 4-Cyanoimidazole
Formula: C4H3N3
CAS: 57090-88-7
Molecular weight: 93
m/z	intensity
41	40
42	12
43	10
44	10
45	11
46	18
50	16
51	43
52	23
53	33
54	3
55	7
56	4
57	6
58	1
59	2
60	2
61	1
62	1
63	2
64	31
65	99
66	933
67	73
68	20
69	5
70	2
71	2
73	1
74	0
75	0
76	2
77	11
78	26
79	3
89	0
90	1
91	1
92	11
93	999
94	151
95	26
96	2
