Mass Spectrum: Quinoline, 1-benzoyldecahydro-, cis-
Formula: C16H21NO
CAS: 5710-04-3
Molecular weight: 243
m/z	intensity
39	30
41	80
42	20
50	20
51	80
53	20
54	30
55	60
56	20
67	30
68	20
69	20
76	30
77	420
78	40
79	20
80	20
81	20
105	999
106	80
109	40
110	30
122	30
134	20
136	20
137	120
138	30
148	20
200	520
201	60
214	20
242	60
243	270
244	50
