Mass Spectrum: 4,5,6,7-Tetrahydroxydecyl isothiocyanate
Formula: C11H21NO4S
CAS: 57103-43-2
Molecular weight: 263
m/z	intensity
26	18
27	455
28	119
29	641
30	74
31	467
32	23
38	7
39	179
40	41
41	810
42	125
43	869
44	230
45	133
46	10
47	43
49	2
50	3
51	10
52	5
53	81
54	43
55	679
56	103
57	594
58	73
59	58
60	289
61	73
62	119
63	4
64	5
65	12
66	11
67	117
68	72
69	135
70	279
71	639
72	273
73	999
74	137
75	107
76	7
77	9
78	7
79	19
80	17
81	29
82	87
83	183
84	193
85	178
86	297
87	57
88	169
89	24
90	7
91	21
92	3
93	4
94	27
95	27
96	20
97	62
98	143
99	70
100	127
101	261
102	95
103	107
104	11
105	5
107	2
108	2
109	4
110	13
111	20
112	243
113	159
114	237
115	428
116	365
117	39
118	3
121	3
122	10
123	4
124	7
125	7
126	45
127	31
128	33
129	19
130	369
131	197
132	67
133	16
134	5
137	3
138	5
139	3
140	55
141	9
142	79
143	51
144	33
145	132
146	13
147	7
149	3
151	2
154	5
155	35
156	58
157	9
158	5
159	2
160	91
161	11
162	7
166	5
167	3
168	3
170	3
171	15
172	61
173	30
174	31
175	4
176	2
184	23
185	29
186	3
190	9
192	1
194	7
202	82
203	57
204	9
210	3
212	3
227	3
228	4
230	2
246	2
263	2
264	1
