Mass Spectrum: 2-Methylprop-2-enyl dithiopropanoate
Formula: C7H12S2
CAS: 57121-70-7
Molecular weight: 160
m/z	intensity
41	88
45	220
55	237
71	70
72	89
73	999
88	140
145	430
160	269
162	20
