Mass Spectrum: 1,4-Dioxaspiro[4.5]decane-6-acetic acid, ethyl ester
Formula: C12H20O4
CAS: 57133-55-8
Molecular weight: 228
m/z	intensity
26	3
27	37
28	19
29	70
30	2
31	11
39	23
40	9
41	84
42	40
43	38
44	23
45	28
50	1
51	3
52	3
53	20
54	10
55	104
56	13
57	10
58	2
60	4
61	4
65	7
66	4
67	30
68	12
69	23
70	5
71	6
72	10
73	14
74	3
77	11
78	3
79	18
80	4
81	25
82	8
83	14
84	4
85	11
86	94
87	9
88	3
91	9
92	3
93	19
94	3
95	13
96	5
97	18
98	6
99	999
100	78
101	10
109	11
110	13
111	17
112	14
113	109
114	14
115	3
121	34
122	3
123	15
124	5
125	13
126	4
127	11
129	5
137	23
138	15
139	97
140	12
141	62
142	8
143	4
152	6
153	6
154	7
155	96
156	17
157	11
158	2
171	57
172	9
183	86
184	19
185	119
186	22
187	4
198	4
199	37
200	5
213	31
214	4
228	92
229	23
230	3
