Mass Spectrum: N-(2-Hydroxybenzoyl)-N-phenylbenzamide
Formula: C20H15NO3
CAS: 57135-19-0
Molecular weight: 317
m/z	intensity
26	6
27	13
28	12
29	10
36	3
37	13
38	31
39	77
40	5
41	20
42	4
43	23
44	6
45	8
49	11
50	94
51	148
52	69
53	8
54	3
55	16
56	8
57	26
58	3
60	7
61	6
62	7
63	34
64	23
65	64
66	10
67	5
68	4
69	22
70	7
71	14
72	2
73	16
74	36
75	20
76	47
77	492
78	522
79	46
80	3
81	10
82	5
83	9
84	6
85	8
87	2
89	2
90	2
91	10
92	33
93	52
94	7
95	9
96	3
97	9
98	3
99	4
102	3
103	2
104	6
105	999
106	81
107	8
109	4
110	2
111	6
112	3
113	4
115	5
116	2
119	3
120	8
121	37
122	7
123	4
124	1
125	2
127	2
128	2
129	4
135	2
136	2
137	3
139	3
140	2
151	4
152	2
166	5
167	12
168	4
169	3
180	20
181	4
183	2
184	2
194	3
195	18
196	9
197	282
198	53
199	4
212	4
213	12
214	2
225	226
226	48
227	5
228	2
317	67
318	18
319	2
