Mass Spectrum: Benzofurazan, 5-chloro-4-nitro-
Formula: C6H2ClN3O3
CAS: 5714-17-0
Molecular weight: 199
m/z	intensity
30	999
37	110
38	70
61	150
62	80
63	70
72	60
74	90
75	60
76	70
87	100
88	440
89	60
104	70
109	130
111	90
123	100
139	160
141	80
199	200
201	80
