Mass Spectrum: 1,3-Cyclopentanedione, 4-hydroxy-5-methyl-
Formula: C6H8O3
CAS: 57156-98-6
Molecular weight: 128
m/z	intensity
39	240
40	210
41	110
42	240
43	690
44	20
45	60
50	10
51	20
53	67
54	70
55	90
56	80
57	670
58	999
59	40
60	50
61	50
66	10
67	30
68	150
69	540
70	90
71	40
72	10
73	20
79	10
80	20
81	20
82	80
83	580
84	10
85	30
87	10
88	10
100	240
101	10
107	10
110	580
111	110
112	20
113	70
126	40
127	20
128	230
129	20
