Mass Spectrum: 9,12,15-Octadecatrienoic acid, 2,2-dimethyl-1,3-dioxolan-4-ylmethyl ester, (Z,Z,Z)-
Formula: C24H40O4
CAS: 57156-93-1
Molecular weight: 392
m/z	intensity
26	10
27	110
28	80
29	310
30	10
31	50
32	10
39	100
40	20
41	640
42	150
43	999
44	30
45	20
51	10
52	10
53	80
54	270
55	750
56	110
57	410
58	40
59	260
60	20
61	60
65	40
66	50
67	770
68	210
69	340
70	50
71	120
72	200
73	100
74	30
75	20
77	80
78	40
79	340
80	250
81	550
82	190
83	200
84	50
85	70
86	20
87	20
89	10
91	150
92	50
93	220
94	120
95	340
96	130
97	130
98	50
99	110
100	20
101	670
102	40
103	10
104	10
105	80
106	50
107	120
108	60
109	150
110	80
111	60
112	20
113	20
114	40
115	100
116	180
117	50
118	10
119	70
120	40
121	110
122	40
123	80
124	50
125	30
126	10
127	20
129	490
130	50
131	40
132	10
133	60
134	30
135	90
136	40
137	50
138	20
139	20
140	10
141	20
142	20
143	50
144	10
145	20
146	10
147	50
148	30
149	80
150	40
151	40
152	20
153	20
154	10
155	40
156	20
157	20
158	20
159	20
160	10
161	50
162	30
163	50
164	40
165	20
166	10
167	10
168	10
169	10
170	10
171	100
172	40
173	20
174	10
175	70
176	20
177	30
178	10
179	20
180	10
181	10
182	10
183	20
184	10
185	80
186	20
187	10
189	40
190	20
191	20
192	10
193	20
194	10
195	10
196	10
197	10
198	10
199	30
200	10
201	10
203	20
204	10
205	10
206	10
207	10
209	10
210	10
211	20
212	10
213	10
214	10
217	10
218	10
219	20
220	10
221	10
222	10
223	10
224	10
225	50
226	20
227	20
233	10
234	10
235	10
236	10
237	10
238	20
239	40
240	20
241	10
243	10
244	20
245	10
247	50
248	10
249	10
251	10
252	10
253	10
254	10
255	10
259	10
260	10
261	30
262	40
263	70
264	20
265	30
266	10
275	10
277	10
278	10
279	60
280	20
281	10
289	10
293	30
294	10
295	10
305	20
306	10
307	10
321	10
334	20
335	30
336	760
337	190
338	30
339	10
375	20
376	10
377	920
378	240
379	50
380	10
392	20
393	10
