Mass Spectrum: 1-Azabicyclo[5,3,0]decane
Formula: C9H17N
CAS: 5715-05-9
Molecular weight: 139
m/z	intensity
41	493
42	300
43	91
44	38
45	21
46	13
47	9
49	41
50	55
51	41
52	31
53	80
54	158
55	311
56	57
57	25
62	10
63	35
64	27
65	26
67	329
68	115
69	116
70	98
71	6
74	13
75	52
76	64
77	26
78	10
79	24
80	55
81	42
82	168
83	726
84	142
85	5
86	8
90	29
91	10
92	28
93	6
94	28
95	16
96	999
97	375
98	33
105	4
106	18
108	27
109	11
110	461
111	115
112	9
122	10
123	5
124	99
125	10
137	31
138	302
139	463
140	48
