Mass Spectrum: Androstan-17-one, 3-(methoxymethoxy)-, (3.beta.)-
Formula: C21H34O3
CAS: 57156-81-7
Molecular weight: 334
m/z	intensity
41	220
43	85
45	999
55	210
67	210
69	60
77	60
79	170
81	200
91	130
93	200
94	65
95	100
97	95
105	130
106	85
107	220
108	220
109	140
119	100
120	60
121	110
122	610
123	55
133	55
135	75
145	85
147	65
149	50
159	60
161	60
201	60
215	130
216	100
218	55
257	80
272	470
273	130
334	180
335	45
