Mass Spectrum: 1,3-Cyclopentanedione, 4-methyl-5-pentyl-
Formula: C11H18O2
CAS: 57157-05-8
Molecular weight: 182
m/z	intensity
41	500
42	190
43	200
53	90
54	60
55	590
56	400
57	160
67	60
68	60
69	330
70	410
71	60
81	30
82	40
83	210
84	999
85	70
97	80
109	90
110	50
111	190
112	770
113	60
125	110
126	30
139	200
140	40
153	40
154	20
167	20
182	160
183	20
