Mass Spectrum: 1,3-Cyclopentanedione, 4-ethyl-
Formula: C7H10O2
CAS: 57157-03-6
Molecular weight: 126
m/z	intensity
41	780
42	370
43	240
53	60
54	30
55	250
56	999
57	50
69	120
70	150
71	10
83	70
84	20
97	100
99	20
111	15
126	220
127	20
