Mass Spectrum: 17-Hydroxyimino-5alpha-androstan-3beta-yl hydrogen succinate
Formula: C23H35NO5
CAS: 5717-82-8
Molecular weight: 405
m/z	intensity
14	2
15	2
25	3
26	20
27	45
28	97
29	81
30	16
31	4
36	1
37	1
38	1
39	32
40	8
41	163
42	26
43	76
44	42
45	25
46	2
47	1
50	2
51	10
52	10
53	59
54	28
55	213
56	83
57	92
58	29
59	10
60	5
63	3
64	3
65	39
66	16
67	207
68	34
69	73
70	68
71	69
72	18
73	67
74	14
75	2
76	3
77	109
78	29
79	280
80	61
81	263
82	94
83	67
84	94
85	16
86	32
87	7
88	3
89	3
90	2
91	276
92	67
93	300
94	164
95	194
96	999
97	137
98	18
99	10
100	15
101	80
102	6
103	16
104	24
105	303
106	148
107	382
108	244
109	368
110	74
111	36
112	18
113	8
114	4
115	23
116	10
117	73
118	46
119	263
120	106
121	197
122	147
123	110
124	59
125	21
126	9
127	8
128	20
129	42
130	27
131	109
132	58
133	169
134	100
135	88
136	35
137	19
138	12
139	4
140	2
141	18
142	19
143	58
144	54
145	171
146	105
147	237
148	175
149	81
150	44
151	30
152	9
153	5
154	4
155	18
156	16
157	56
158	60
159	141
160	126
161	208
162	95
163	47
164	36
165	30
166	11
167	7
168	5
169	22
170	16
171	44
172	44
173	83
174	69
175	53
176	42
177	14
178	16
179	9
180	9
181	11
182	7
183	23
184	18
185	37
186	41
187	54
188	47
189	24
190	16
191	7
192	9
193	5
194	5
195	16
196	9
197	31
198	52
199	48
200	59
201	71
202	50
203	13
204	8
205	4
206	7
207	3
208	2
209	8
210	8
211	27
212	51
213	127
214	95
215	223
216	106
217	81
218	26
219	8
220	3
221	1
222	2
223	6
224	6
225	7
226	49
227	32
228	54
229	55
230	36
231	16
232	11
233	10
234	9
235	11
236	3
237	43
238	10
239	22
240	30
241	25
242	17
243	8
244	12
245	6
246	9
247	3
248	2
249	1
250	2
251	4
252	35
253	33
254	205
255	81
256	69
257	18
258	8
259	4
260	4
261	1
262	1
263	1
265	2
266	2
267	8
268	51
269	296
270	599
271	193
272	140
273	27
274	35
275	8
276	2
277	1
278	9
279	2
281	1
283	2
284	2
285	17
286	27
287	77
288	102
289	34
290	45
291	9
292	1
303	1
304	2
305	4
306	1
318	4
319	1
320	3
321	1
329	1
330	2
331	3
332	5
333	7
334	3
335	5
336	1
342	1
343	1
344	4
345	1
346	4
347	1
348	1
354	1
355	2
357	1
358	1
359	2
360	2
370	2
371	2
372	15
373	10
374	53
375	12
376	2
386	4
387	31
388	383
389	116
390	44
391	9
392	1
405	6
406	2
