Mass Spectrum: 2-Cyclopenten-1-one, 3,4-dihydroxy-5-(3-methyl-2-butenyl)-2-(3-methyl-1-oxobutyl)-4-(4-methyl-1-oxo-2-pentenyl)-
Formula: C21H30O5
CAS: 57195-47-8
Molecular weight: 362
m/z	intensity
39	190
41	999
42	60
53	120
54	60
55	140
57	280
67	100
69	690
70	60
77	60
79	60
81	60
83	50
85	150
91	50
95	50
97	670
98	50
104	110
149	40
181	60
188	60
192	50
197	250
198	50
209	80
210	40
223	40
233	50
235	40
249	80
265	20
266	50
277	90
293	90
294	60
362	10
