Mass Spectrum: 1,3-Dioxane-2-propanoic acid, 2-methyl-, ethyl ester
Formula: C10H18O4
CAS: 57197-36-1
Molecular weight: 202
m/z	intensity
15	22
26	22
27	97
29	129
31	53
32	144
40	22
41	87
42	41
43	775
44	38
45	54
55	93
56	71
57	53
59	25
71	86
73	167
74	66
98	66
99	483
100	52
101	999
102	176
103	21
113	37
129	165
144	26
157	193
158	22
187	260
188	36
