Mass Spectrum: 2(5H)-Oxepinone, 6,7-dihydro-
Formula: C6H8O2
CAS: 57205-07-9
Molecular weight: 112
m/z	intensity
25	11
26	155
27	556
28	29
29	95
30	7
31	29
33	2
34	0
36	4
37	44
38	98
39	999
40	182
41	223
42	250
43	99
44	8
45	5
46	0
47	0
48	1
49	15
50	67
51	85
52	55
53	396
54	731
55	277
56	64
57	14
58	1
59	0
60	1
61	7
62	10
63	12
64	2
65	25
66	23
67	109
68	98
69	123
70	46
71	857
72	40
73	3
76	0
77	0
78	0
79	1
80	7
81	267
82	293
83	71
84	459
85	26
86	1
93	0
94	1
95	0
96	0
97	3
109	0
110	5
111	453
112	222
113	16
114	1
