Mass Spectrum: Benzeneethanamine, .alpha.,2,6-trimethyl-, (.+/-.)-
Formula: C11H17N
CAS: 57204-69-0
Molecular weight: 163
m/z	intensity
41	170
42	190
43	100
44	999
45	180
51	120
60	150
65	150
77	290
78	150
79	130
91	370
103	190
104	150
105	400
115	170
117	180
119	330
120	190
163	10
