Mass Spectrum: p-Methylbenzeneboronic acid
Formula: C7H9BO2
CAS: 5720-05-8
Molecular weight: 136
m/z	intensity
25	1
26	10
27	33
28	1
29	3
30	2
31	1
33	0
35	0
36	1
37	7
38	26
39	182
40	19
41	33
42	4
43	2
44	79
45	284
46	1
47	1
48	1
49	3
50	51
51	86
52	34
53	29
54	1
55	0
56	3
57	5
58	1
59	2
60	1
61	9
62	35
63	102
64	30
65	237
66	29
67	7
68	1
69	1
70	0
73	1
74	13
75	6
76	8
77	24
78	6
79	1
80	0
81	0
82	0
83	0
84	1
85	5
86	5
87	7
88	3
89	58
90	41
91	999
92	875
93	57
94	1
96	0
99	0
100	1
101	0
102	2
103	1
104	1
105	0
107	0
108	0
110	0
111	0
112	0
113	0
114	0
115	3
116	14
117	63
118	44
119	35
120	3
121	0
129	0
132	1
133	1
134	8
135	148
136	644
137	43
138	3
139	0
