Mass Spectrum: L-Cysteine, N,S-bis(trifluoroacetyl)-, trimethylsilyl ester
Formula: C10H13F6NO4SSi
CAS: 57207-35-9
Molecular weight: 385
m/z	intensity
15	5
27	8
28	22
29	16
30	4
31	9
33	1
38	1
39	3
40	3
41	9
42	15
43	90
44	50
45	242
46	24
47	139
48	8
49	11
50	5
51	6
52	11
53	10
54	6
55	28
56	17
57	64
58	49
59	65
60	25
61	86
62	5
63	26
64	1
65	3
67	2
68	9
69	163
70	53
71	10
72	51
73	999
74	132
75	994
76	79
77	198
78	20
79	18
80	3
81	5
82	8
83	45
84	17
85	12
86	10
87	24
88	13
89	12
90	17
91	20
92	7
93	2
94	4
95	3
96	25
97	21
98	4
99	5
100	24
101	15
102	18
103	4
104	16
105	6
106	3
107	2
108	8
109	3
110	11
111	1
112	5
113	17
114	6
115	19
116	11
117	37
118	16
119	6
120	45
121	13
122	13
123	3
124	4
125	1
126	9
127	4
128	3
129	13
130	9
131	2
132	6
133	28
134	27
135	7
136	6
137	21
138	26
139	23
140	3
141	2
142	3
143	29
144	5
145	4
146	10
147	17
148	3
149	1
150	8
151	1
152	28
153	6
154	23
155	6
156	2
157	2
158	5
159	202
160	20
161	13
162	3
163	1
164	2
165	1
166	7
167	1
168	1
169	1
170	51
171	7
172	4
173	1
174	1
175	20
176	3
177	5
178	3
179	28
180	13
181	3
182	1
185	1
186	1
187	3
189	2
190	5
191	1
192	2
193	3
196	1
198	15
199	4
200	3
201	2
202	8
203	2
204	2
209	2
210	26
211	4
212	251
213	31
214	13
215	1
222	1
223	2
224	5
225	2
226	1
227	5
228	2
229	2
232	1
234	1
235	2
237	2
238	1
239	1
240	103
241	16
242	8
243	1
244	8
245	1
246	5
248	2
249	20
250	6
251	2
253	392
254	56
255	35
256	8
257	15
258	2
259	2
260	2
261	1
266	1
267	15
268	42
269	7
270	5
272	5
273	1
274	1
276	1
288	16
289	3
290	3
292	5
293	1
294	1
310	1
318	1
324	1
342	3
343	1
353	1
370	52
371	8
372	6
