Mass Spectrum: 1H-Pyrazole-3-carboxaldehyde, 5-phenyl-
Formula: C10H8N2O
CAS: 57204-65-6
Molecular weight: 172
m/z	intensity
51	140
62	60
63	130
74	70
75	70
76	130
77	270
78	60
89	200
103	180
104	220
114	60
115	999
116	270
117	160
144	110
171	130
172	620
173	60
