Mass Spectrum: (1R-(1Alpha,3beta,4beta))-1-isopropenyl-4-methyl-1,3-cyclohexanediol 3-acetate
Formula: C12H20O3
CAS: 57211-60-6
Molecular weight: 212
m/z	intensity
14	1
15	21
17	1
18	3
26	1
27	42
28	15
29	58
30	2
31	10
38	2
39	85
40	22
41	388
42	37
43	705
44	22
45	18
50	3
51	13
52	7
53	45
54	14
55	236
56	47
57	47
58	31
59	9
60	9
61	9
62	1
63	5
64	3
65	25
66	11
67	103
68	117
69	999
70	100
71	54
72	16
73	4
74	1
75	1
77	44
78	10
79	75
80	17
81	118
82	111
83	108
84	318
85	93
86	55
87	4
89	2
90	1
91	84
92	29
93	85
94	99
95	306
96	151
97	236
98	174
99	22
100	9
101	1
102	1
103	7
104	4
105	46
106	19
107	31
108	67
109	314
110	265
111	418
112	35
113	255
114	19
115	11
116	3
117	21
118	4
119	235
120	24
121	15
122	9
123	764
124	242
125	24
126	3
127	21
128	12
129	5
131	2
132	10
133	9
134	249
135	71
136	11
137	211
138	20
139	2
140	3
141	1
142	2
150	1
151	21
152	820
153	105
154	9
155	39
156	4
157	1
169	10
170	343
171	39
172	3
194	47
195	9
196	1
212	27
213	4
