Mass Spectrum: 1-Nonen-3-yne
Formula: C9H14
CAS: 57223-18-4
Molecular weight: 122
m/z	intensity
22	1
23	5
24	2
25	6
26	29
27	371
28	125
29	728
30	17
31	2
33	2
34	3
35	4
36	2
37	7
38	63
39	689
40	155
41	617
42	154
43	56
44	31
45	3
47	1
48	1
49	7
50	69
51	157
52	121
53	147
54	40
55	306
56	31
57	94
58	8
59	3
60	2
61	12
62	38
63	127
64	55
65	422
66	437
67	305
68	102
69	15
70	11
71	3
72	1
73	2
74	14
75	33
76	10
77	661
78	151
79	999
80	340
81	184
82	11
85	0
86	1
87	1
88	0
89	22
91	407
92	57
93	609
94	109
95	18
96	1
101	0
103	6
104	1
105	35
106	5
107	324
108	40
109	2
115	4
116	1
117	3
119	1
120	4
121	11
122	47
123	4
