Mass Spectrum: Benzene, 1-methoxy-3-(methoxymethoxy)-
Formula: C9H12O3
CAS: 57234-28-3
Molecular weight: 168
m/z	intensity
26	6
27	12
28	1
29	37
30	3
31	5
37	4
38	19
39	39
40	5
41	25
42	3
43	5
44	4
45	999
46	26
47	3
49	1
50	19
51	24
52	36
53	18
54	4
55	9
56	1
57	3
59	2
61	5
62	12
63	41
64	39
65	27
66	14
67	7
68	3
69	11
71	2
74	7
75	8
76	10
77	54
78	22
79	12
80	14
81	23
82	3
83	1
91	4
92	44
93	13
94	42
95	48
96	5
105	6
106	2
107	51
108	22
109	30
110	4
121	4
122	2
123	6
124	68
125	7
135	2
136	8
137	38
138	135
139	13
140	1
141	2
153	2
167	2
168	229
169	23
170	3
