Mass Spectrum: Acetamide, N,N-bis(1-methylpropyl)-
Formula: C10H21NO
CAS: 57233-37-1
Molecular weight: 171
m/z	intensity
44	40
55	100
56	60
57	120
58	160
70	100
72	160
84	60
86	420
100	999
114	200
142	240
156	60
171	200
