Mass Spectrum: 1,2,3-Triazole, 5-[(4-bromophenylsulfonyl)methylamino]-1-methyl-
Formula: C10H11BrN4O2S
CAS: 57240-89-8
Molecular weight: 330
m/z	intensity
42	999
43	600
50	140
54	160
75	180
76	180
82	460
83	140
111	260
155	120
157	120
185	220
187	220
265	60
