Mass Spectrum: Benzonitrile, 4-(3-oxo-3-phenyl-1-propenyl)-
Formula: C16H11NO
CAS: 5724-55-0
Molecular weight: 233
m/z	intensity
50	200
51	457
63	78
75	168
76	131
77	999
89	108
101	200
102	169
105	828
128	250
130	30
156	328
178	50
179	39
190	60
203	60
204	251
205	168
207	70
232	510
233	859
