Mass Spectrum: trans-3-Thiabicyclo[4.4.0]decane
Formula: C9H16S
CAS: 57259-81-1
Molecular weight: 156
m/z	intensity
39	665
40	89
41	859
42	71
43	99
44	9
45	388
46	149
47	178
48	8
50	31
51	97
52	49
53	271
54	150
55	319
56	20
57	9
58	41
59	102
60	102
61	199
62	18
63	29
64	29
65	107
66	51
67	655
68	159
69	71
70	8
71	39
72	21
73	61
74	31
75	19
77	112
78	31
79	289
80	112
81	461
82	51
85	111
86	29
87	72
91	63
92	9
93	294
94	143
95	332
96	299
97	41
99	172
100	91
101	22
105	11
107	143
108	83
109	999
110	105
113	255
114	36
115	23
121	12
122	205
123	34
127	21
128	19
141	505
142	55
143	21
155	22
156	821
157	95
158	45
