Mass Spectrum: 2-(1-Hydroxyethyl)hydroxymethylbenzene
Formula: C9H12O2
CAS: 57259-71-9
Molecular weight: 152
m/z	intensity
27	86
29	53
39	158
43	306
45	70
50	86
51	231
52	64
53	65
62	38
63	121
64	34
65	263
74	33
75	37
76	36
77	413
78	120
79	252
89	129
90	138
91	985
92	118
103	93
105	322
106	57
115	95
116	50
117	76
118	54
119	999
120	127
134	706
135	97
137	70
