Mass Spectrum: 1-Phenyl-4-[N-[2-hydroxy-2-phenylethyl]thiocarbamoyl]piperazine
Formula: C19H23N3OS
CAS: 57260-51-2
Molecular weight: 341
m/z	intensity
42	269
43	126
44	118
45	104
46	15
47	13
48	1
49	18
50	141
51	462
52	105
53	56
54	57
55	42
56	266
57	72
58	22
59	26
60	57
61	22
62	36
63	98
64	10
65	93
66	9
67	5
68	14
69	13
70	17
72	197
73	38
74	57
75	27
77	999
78	81
79	804
80	41
81	22
83	9
84	9
86	71
88	19
89	61
91	407
92	57
93	13
94	3
95	1
97	2
98	2
99	2
100	3
101	6
102	26
103	127
104	533
105	380
106	51
107	716
108	31
109	4
110	0
112	3
113	0
115	25
116	33
117	90
118	179
119	75
120	835
121	126
122	6
123	46
124	3
125	2
127	4
128	34
129	5
130	23
131	9
132	700
133	186
134	73
135	10
136	18
137	9
138	1
139	0
141	0
142	1
143	4
144	25
145	50
146	25
147	51
148	109
149	13
151	4
152	2
153	0
154	0
157	2
158	1
159	11
160	20
161	71
162	470
163	65
164	6
169	1
171	5
172	0
173	0
174	2
175	4
176	0
177	6
179	127
180	23
181	5
186	3
187	2
188	95
189	14
191	44
192	4
193	4
194	1
196	0
202	6
203	8
205	82
206	2
207	4
209	9
217	0
219	1
220	5
221	15
222	62
223	12
224	5
232	0
233	0
234	1
235	1
239	0
251	1
307	2
308	9
309	1
323	1
324	0
339	2
340	3
341	190
342	41
343	9
344	0
