Mass Spectrum: Tetracosanoic acid, 3,6-dimethyl-, methyl ester, [S-(R*,S*)]-
Formula: C27H54O2
CAS: 57274-47-2
Molecular weight: 410
m/z	intensity
14	1
15	3
16	2
17	15
18	68
26	2
27	8
28	24
29	26
30	2
31	3
32	3
37	1
38	1
39	12
40	4
41	91
42	24
43	220
44	87
45	5
46	1
50	2
51	2
52	2
53	10
54	15
55	249
56	85
57	293
58	18
59	52
60	5
61	3
62	2
63	1
64	4
65	3
66	2
67	40
68	29
69	243
70	252
71	183
72	14
73	44
74	894
75	459
76	21
77	7
78	2
79	11
80	6
81	54
82	44
83	224
84	47
85	119
86	10
87	129
88	19
89	3
91	5
92	2
93	10
94	4
95	49
96	36
97	171
98	51
99	36
100	11
101	999
102	73
103	7
104	3
105	4
106	1
107	8
108	4
109	27
110	11
111	51
112	12
113	12
114	5
115	35
116	6
117	2
118	1
119	2
120	1
121	6
122	3
123	16
124	7
125	48
126	23
127	11
128	3
129	101
130	17
131	5
132	1
133	2
134	1
135	6
136	2
137	6
138	4
139	12
140	4
141	6
142	1
143	13
144	2
145	1
147	1
148	1
149	10
150	2
151	3
152	2
153	5
154	2
155	4
156	1
157	28
158	5
159	1
161	1
163	3
164	1
165	20
166	2
167	7
168	2
169	3
170	1
171	7
172	2
173	1
175	1
177	2
178	1
179	1
180	3
181	3
182	1
183	3
184	1
185	2
186	1
187	1
189	1
191	1
192	1
193	1
194	2
195	2
196	1
197	2
198	1
199	1
200	1
202	1
204	1
205	1
206	1
207	1
208	1
209	2
210	1
211	2
212	1
213	2
214	1
219	1
220	1
221	1
222	2
223	2
224	1
225	2
226	1
227	1
228	1
229	1
233	1
234	1
235	1
236	2
237	2
238	2
239	2
240	1
241	1
242	1
247	1
248	1
249	1
250	2
251	2
252	2
253	2
254	1
255	2
256	1
257	1
261	1
262	1
263	1
264	3
265	3
266	2
267	2
268	1
270	2
271	1
275	1
276	1
277	1
278	4
279	9
280	10
281	6
282	1
283	2
284	1
289	1
290	1
291	1
292	2
293	2
294	9
295	4
296	1
297	2
298	2
299	2
300	2
301	1
305	2
306	1
307	2
308	2
309	1
310	1
311	2
313	4
314	1
317	1
318	1
319	1
320	2
321	1
322	1
323	1
324	1
325	1
326	1
331	1
332	1
333	1
334	381
335	101
336	37
337	17
338	4
339	4
340	2
341	1
342	1
345	1
346	1
347	1
348	6
349	2
350	1
351	1
352	1
353	5
354	2
355	1
359	2
360	11
361	17
362	5
363	3
364	1
367	12
368	4
369	1
376	1
377	3
378	2
379	18
380	6
381	6
382	2
393	1
394	1
395	20
396	6
397	1
407	1
408	2
409	4
410	27
411	9
412	2
