Mass Spectrum: Ethanone, 1-cyclopropyl-2-(3-pyridinyl)-
Formula: C10H11NO
CAS: 57276-33-2
Molecular weight: 161
m/z	intensity
37	23
38	72
39	538
40	46
41	831
42	40
43	7
49	4
50	32
51	49
52	25
53	11
54	6
55	12
61	9
62	26
63	85
64	52
65	194
66	31
67	10
68	47
69	846
70	38
71	3
74	4
75	5
76	5
77	11
78	17
79	7
90	6
91	37
92	177
93	999
94	69
104	4
105	4
106	6
107	10
117	9
118	48
119	6
120	6
130	4
132	9
133	6
161	95
162	11
