Mass Spectrum: 2,4,6,8-Tetrathiatricyclo[3.3.1.1(3,7)]decane-1-thiol, 3,5,7-trimethyl-
Formula: C9H14S5
CAS: 57274-35-8
Molecular weight: 282
m/z	intensity
14	5
15	16
16	11
20	5
25	5
26	18
27	49
28	71
29	20
31	288
32	211
33	474
34	999
35	22
36	42
37	15
38	32
39	218
40	37
41	152
42	16
43	15
44	28
45	194
46	16
47	30
48	5
49	6
50	20
51	35
52	15
53	37
54	8
55	27
56	8
57	49
58	144
59	847
60	40
61	35
62	11
63	20
64	15
65	45
66	16
67	35
68	8
69	39
70	15
71	59
72	16
73	66
74	47
75	15
76	57
77	45
78	16
79	25
80	5
81	15
82	15
83	47
84	22
85	93
86	11
87	10
88	5
89	8
90	5
91	47
92	27
93	20
94	6
95	8
96	5
97	71
98	33
99	49
100	16
101	18
102	6
103	10
104	5
105	27
106	6
107	10
108	13
109	13
110	13
111	83
112	50
113	25
114	5
115	13
116	42
117	169
118	20
119	23
120	6
121	11
122	6
123	18
124	23
125	144
126	49
127	33
128	6
129	15
130	32
131	123
132	16
133	27
134	20
135	25
136	8
137	16
138	22
139	54
140	28
141	20
142	10
143	83
144	111
145	44
146	15
147	16
148	18
149	76
150	39
151	25
152	33
153	16
154	6
155	37
156	84
157	93
158	20
159	20
165	5
167	22
168	11
169	11
170	5
173	6
175	35
176	6
177	10
178	6
179	5
180	10
181	28
182	25
183	37
184	71
185	50
186	15
187	5
189	8
191	6
210	5
212	6
214	6
215	8
216	18
217	78
218	23
219	13
220	5
236	8
248	33
249	59
250	20
251	11
282	179
283	25
284	42
285	6
286	5
