Mass Spectrum: 2,4,6,8,9-Pentathiatricyclo[3.3.1.1(3,7)]decane, 1,1'-dithiobis[3,5,7-trimethyl-
Formula: C16H22S12
CAS: 57274-53-0
Molecular weight: 598
m/z	intensity
12	1
13	0
14	1
15	11
16	0
17	0
18	3
24	0
25	1
26	7
27	19
28	3
29	9
30	0
31	0
32	28
33	10
34	19
35	1
36	1
37	3
38	8
39	5
40	11
41	4
42	4
43	22
44	26
45	5
46	7
47	13
48	1
49	1
50	4
51	7
52	2
53	15
54	3
55	12
56	2
57	21
58	75
59	999
60	35
61	47
62	3
63	5
64	49
65	32
66	12
67	31
68	3
69	13
70	5
71	17
72	5
73	10
74	5
75	3
76	174
77	25
78	15
79	4
80	1
81	3
82	3
83	7
84	7
85	36
86	3
87	4
88	2
89	1
90	2
91	28
92	28
93	7
94	3
95	2
96	2
97	36
98	25
99	118
100	19
101	21
102	2
103	3
104	3
105	1
106	1
107	3
108	1
109	2
110	3
111	33
112	12
113	10
114	1
115	2
116	4
117	110
118	7
119	10
120	0
121	1
122	1
123	25
124	4
125	50
126	34
127	35
128	5
129	8
130	34
131	504
132	45
133	97
134	7
135	6
136	1
137	2
138	1
139	1
140	0
141	2
142	1
143	76
144	58
145	28
146	7
147	2
148	2
149	3
150	2
151	0
152	0
153	0
154	0
155	5
156	5
157	57
158	53
159	86
160	15
161	8
162	16
163	16
164	3
165	2
166	0
167	5
168	1
169	1
170	5
171	2
172	1
173	1
174	1
175	330
176	33
177	49
178	4
179	3
180	0
181	0
182	0
183	0
184	0
185	0
186	0
187	1
188	1
189	1
190	8
191	127
192	15
193	19
194	2
195	2
196	0
197	0
198	0
199	0
200	0
201	0
202	1
203	1
204	2
205	0
206	0
207	47
208	8
209	15
210	2
211	1
212	0
213	0
222	1
223	10
224	2
225	2
226	1
227	0
228	0
233	0
234	3
235	115
236	60
237	28
238	10
239	2
240	2
241	0
242	0
249	0
253	1
254	0
255	0
256	0
266	21
267	201
268	33
269	44
270	6
271	4
272	0
280	0
282	0
298	3
299	30
300	55
301	15
302	14
303	2
304	1
305	0
307	1
315	0
317	0
332	1
363	0
364	1
365	0
366	0
443	2
444	1
445	1
446	0
461	2
462	0
463	1
534	13
535	3
536	6
537	1
538	1
539	0
598	10
599	3
600	6
601	1
602	1
603	0
604	0
