Mass Spectrum: 2,4,6,8,9,10-Hexathiatricyclo[3.3.1.1(3,7)]decane, 1-ethyl-
Formula: C6H8S6
CAS: 57274-64-3
Molecular weight: 272
m/z	intensity
12	1
13	0
14	0
15	2
16	1
17	19
18	85
20	0
24	0
25	1
26	6
27	26
28	9
29	26
30	0
31	0
32	11
33	6
34	10
35	1
36	1
37	2
38	3
39	39
40	3
41	2
42	2
43	2
44	28
45	686
46	41
47	60
48	2
49	2
50	2
51	2
52	3
53	4
54	2
55	2
56	1
57	9
58	59
59	22
60	49
61	5
62	0
63	0
64	9
65	2
66	1
67	0
68	1
69	11
70	3
71	50
72	25
73	999
74	53
75	44
76	52
77	53
78	24
79	34
80	2
81	2
82	0
83	0
84	2
85	7
86	2
87	1
88	3
89	5
90	15
91	9
92	2
93	1
94	0
95	0
96	0
97	2
98	2
99	3
100	0
101	1
102	2
103	123
104	6
105	16
106	3
107	3
108	0
109	8
110	0
111	5
112	0
113	0
115	1
116	6
117	17
118	76
119	7
120	8
121	3
122	196
123	69
124	27
125	8
126	1
127	0
128	0
129	3
130	7
131	166
132	11
133	14
134	5
135	31
136	3
137	4
138	0
139	0
141	0
142	0
143	0
144	4
145	0
146	1
147	1
148	2
149	6
150	254
151	21
152	32
153	2
154	2
155	2
156	0
159	3
161	2
162	2
163	43
164	3
165	5
166	2
167	22
168	1
169	3
170	0
171	0
175	5
176	1
177	1
178	2
179	8
180	2
181	2
182	1
183	2
184	0
185	0
191	1
192	0
193	1
194	1
195	9
196	1
197	1
198	0
199	6
200	0
201	1
203	0
207	284
208	46
209	49
210	7
211	10
212	1
213	1
214	0
223	0
224	1
225	0
226	0
227	3
228	0
229	0
235	3
236	0
237	0
238	0
239	0
240	0
241	0
244	12
245	1
246	3
247	0
248	0
272	156
273	16
274	39
275	3
276	4
277	0
278	0
