Mass Spectrum: 2,4,6,8-Tetrathiatricyclo[3.3.1.1(3,7)]decan-1-ol, 3,5,7-trimethyl-, monoester with boric acid (H3BO3)
Formula: C9H15BO3S4
CAS: 57274-36-9
Molecular weight: 310
m/z	intensity
14	1
15	13
16	4
17	68
18	348
26	6
27	42
28	18
29	20
30	1
31	1
32	12
33	10
34	25
35	2
36	2
37	2
38	8
39	108
40	15
41	142
42	8
43	22
44	20
45	214
46	27
47	30
48	2
49	1
50	5
51	11
52	5
53	40
54	5
55	17
56	3
57	9
58	69
59	999
60	45
61	51
62	3
63	4
64	7
65	29
66	9
67	33
68	4
69	14
70	3
71	36
72	8
73	58
74	17
75	10
76	7
77	9
78	4
79	11
80	2
81	5
82	3
83	9
84	25
85	77
86	18
87	22
88	2
89	2
90	2
91	14
92	4
93	10
94	5
95	4
96	2
97	31
98	25
99	80
100	20
101	28
102	3
103	107
104	6
105	14
106	3
107	6
108	8
109	5
110	5
111	75
112	84
113	75
114	9
115	7
116	7
117	455
118	39
119	54
120	6
121	6
122	1
123	3
124	6
125	205
126	107
127	60
128	14
129	8
130	8
131	250
132	26
133	36
134	5
135	5
136	3
137	5
138	5
139	53
140	6
141	8
142	2
143	133
144	34
145	63
146	7
147	7
148	1
149	6
150	5
151	17
152	52
153	14
154	4
155	1
156	1
157	22
158	11
159	26
160	3
161	4
167	1
168	1
169	2
170	1
171	3
172	1
173	2
175	4
176	1
177	8
183	9
184	5
185	258
186	30
187	23
188	3
189	2
191	2
201	5
217	303
218	34
219	38
220	4
221	3
232	2
233	16
234	3
235	2
250	607
251	72
252	102
253	13
254	8
266	58
267	8
268	11
294	1
