Mass Spectrum: 2,4,6,8,9-Pentathiabicyclo[3.3.1]nonane, 1,3,5,7-tetramethyl-
Formula: C8H14S5
CAS: 57274-33-6
Molecular weight: 270
m/z	intensity
12	0
13	0
14	0
15	12
16	0
17	7
18	34
24	0
25	1
26	11
27	26
28	4
29	2
30	0
31	0
32	6
33	5
34	12
35	5
36	0
37	0
38	0
39	3
40	0
41	4
42	1
43	2
44	7
45	60
46	4
47	5
48	0
49	0
50	0
51	0
52	0
53	3
54	2
55	3
56	2
57	21
58	74
59	999
60	82
61	63
62	3
63	1
64	7
65	8
66	1
67	0
68	0
69	1
70	0
71	3
72	0
73	1
74	0
75	0
76	12
77	2
78	1
79	0
81	0
82	0
83	0
84	0
85	2
86	1
87	4
88	1
89	0
90	0
91	11
92	14
93	32
94	2
95	2
97	0
99	0
101	0
103	2
104	0
105	0
111	0
112	0
113	0
114	0
115	2
116	2
117	5
118	181
119	57
120	20
121	5
122	0
123	0
130	0
131	7
132	0
133	0
143	0
144	0
145	54
146	349
147	32
148	30
149	3
150	68
151	443
152	36
153	57
154	3
155	2
156	0
176	1
177	1
178	64
179	12
180	10
181	1
182	0
206	5
207	0
208	0
209	0
210	10
211	1
212	1
213	0
214	0
270	36
271	4
272	7
273	1
274	0
