Mass Spectrum: 2-Propanone, 1-(1,3,5-trithian-2-yl)-
Formula: C6H10OS3
CAS: 57274-65-4
Molecular weight: 194
m/z	intensity
14	4
15	48
18	2
26	4
27	25
28	4
29	1
32	3
33	3
34	4
35	1
37	1
38	1
39	10
40	1
41	11
42	9
43	999
44	23
45	221
46	134
47	57
48	6
49	2
50	1
51	1
53	1
55	3
57	7
58	50
59	83
60	57
61	74
62	4
63	3
64	28
66	2
69	1
71	19
72	3
73	96
74	38
75	9
76	7
77	6
78	10
79	2
80	1
83	12
84	3
85	9
86	3
87	35
88	1
89	29
90	3
91	21
92	36
93	17
94	4
95	1
98	8
99	7
100	2
101	26
102	105
103	19
104	7
105	70
106	28
107	7
108	2
110	6
111	1
112	1
114	1
115	17
116	36
117	52
118	18
119	6
120	1
121	0
123	1
124	1
129	32
130	4
131	2
133	1
134	2
135	6
136	55
137	18
138	9
139	2
146	7
147	14
148	37
149	4
150	3
151	21
152	1
153	2
160	11
161	27
162	3
163	2
176	1
179	7
180	1
181	1
191	1
192	1
194	240
195	22
196	32
197	2
198	1
