Mass Spectrum: Heptadecanoic acid, 15-methyl-, ethyl ester
Formula: C20H40O2
CAS: 57274-46-1
Molecular weight: 312
m/z	intensity
18	14
27	24
28	10
29	123
39	17
40	5
41	188
42	36
43	217
44	9
45	30
53	12
54	20
55	246
56	74
57	275
58	17
59	12
60	61
61	66
64	5
67	45
68	23
69	188
70	141
71	116
72	8
73	108
74	16
75	5
79	12
81	58
82	21
83	171
84	56
85	63
86	6
87	26
88	999
89	192
90	12
91	5
93	13
94	5
95	61
96	25
97	161
98	55
99	23
101	675
102	61
103	6
107	17
109	49
110	16
111	96
112	15
113	15
115	88
116	12
121	29
122	5
123	35
124	10
125	60
126	9
127	10
129	47
130	21
135	31
136	5
137	25
138	8
139	41
140	6
141	9
143	100
144	30
149	28
150	5
151	15
152	8
153	31
154	5
155	7
157	267
158	38
163	17
165	10
166	6
167	23
171	35
177	16
179	10
180	5
181	14
185	30
186	9
191	13
193	5
194	6
195	23
196	5
199	59
200	17
207	6
209	13
213	121
214	21
219	28
220	7
221	10
222	7
223	5
227	48
228	12
229	10
233	5
235	10
236	6
237	32
238	7
241	58
242	17
247	6
249	26
250	6
251	7
255	73
256	23
257	8
264	20
265	31
266	11
267	68
268	14
269	160
270	32
281	10
282	5
283	85
284	21
297	11
310	11
311	12
312	625
313	161
314	24
