Mass Spectrum: 1-Phenanthrenecarboxylic acid, 1,2,3,4,4a,4b,5,9,10,10a-decahydro-1,4a-dimethyl-7-(1-methylethyl)-, ethyl ester, [1R-(1.alpha.,4a.beta.,4b.alpha.,10a.alpha.)]-
Formula: C22H34O2
CAS: 57274-59-6
Molecular weight: 330
m/z	intensity
14	16
15	67
16	8
17	21
18	46
25	14
26	42
27	106
29	343
30	13
31	33
37	5
38	9
39	64
40	18
41	222
42	203
43	999
44	510
45	89
46	8
50	14
51	29
52	22
53	63
54	82
55	173
56	56
57	102
58	26
59	34
60	43
61	10
63	11
64	20
65	24
66	16
67	66
68	123
69	265
70	130
71	49
72	38
73	27
74	17
75	8
76	10
77	36
78	14
79	38
80	14
81	58
82	28
83	54
84	23
85	21
86	8
87	31
88	7
89	7
91	77
92	32
93	35
94	25
95	52
96	44
97	229
98	27
99	12
100	12
101	8
102	8
103	11
104	15
105	44
106	12
107	32
108	13
109	75
110	23
111	87
112	101
113	20
114	6
115	63
116	15
117	49
118	13
119	26
120	16
121	120
122	24
123	353
124	36
125	16
126	11
127	17
128	35
129	40
130	10
131	45
132	11
133	69
134	24
135	25
136	13
137	85
138	11
139	47
140	7
141	38
142	20
143	35
144	10
145	20
146	73
147	32
148	16
149	66
150	11
151	19
152	16
153	21
154	167
155	45
156	12
157	20
158	7
159	27
160	7
161	9
162	5
163	15
164	5
165	63
166	13
167	37
168	9
169	22
170	9
171	19
172	6
173	49
174	6
178	8
179	10
180	196
181	43
182	12
183	19
184	8
185	29
186	12
187	19
188	5
189	5
191	5
193	6
194	9
195	32
196	21
197	36
199	21
200	10
201	7
202	10
206	15
207	6
211	13
212	6
213	9
215	11
223	8
224	6
225	14
237	17
238	10
239	470
240	98
241	21
243	17
253	6
254	6
255	35
256	14
257	15
258	6
259	7
275	5
284	6
303	8
313	45
314	11
315	6
318	5
326	5
328	51
329	13
330	22
331	6
