Mass Spectrum: 2,4,6,8,9-Pentathiatricyclo[3.3.1.1(3,7)]decane-1-thiol, 3,5,7-trimethyl-
Formula: C8H12S6
CAS: 57274-31-4
Molecular weight: 300
m/z	intensity
12	1
13	0
14	2
15	20
16	1
17	9
18	41
19	0
24	0
25	2
26	8
27	31
28	10
29	24
30	1
31	8
32	21
33	11
34	25
35	1
36	2
37	3
38	6
39	68
40	13
41	101
42	11
43	53
44	21
45	70
46	7
47	17
48	1
49	1
50	4
51	7
52	3
53	19
54	6
55	52
56	15
57	51
58	71
59	999
60	52
61	53
62	3
63	5
64	13
65	31
66	10
67	42
68	11
69	50
70	13
71	29
72	4
73	28
74	8
75	6
76	112
77	37
78	11
79	8
80	3
81	27
82	9
83	24
84	10
85	30
86	3
87	3
88	2
89	1
90	1
91	17
92	30
93	9
94	4
95	17
96	8
97	31
98	23
99	125
100	19
101	31
102	3
103	3
104	3
105	5
106	2
107	5
108	2
109	10
110	6
111	28
112	16
113	8
114	2
115	4
116	3
117	91
118	7
119	9
120	1
121	4
122	2
123	41
124	4
125	39
126	39
127	44
128	6
129	10
130	20
131	398
132	36
133	96
134	8
135	8
136	3
137	7
138	3
139	4
140	2
141	3
142	1
143	56
144	110
145	48
146	13
147	5
148	1
149	22
150	4
151	3
152	2
153	2
154	1
155	3
156	3
157	16
158	42
159	111
160	22
161	13
162	16
163	20
164	3
165	3
166	1
167	4
168	2
169	2
170	8
171	5
172	2
173	1
174	0
175	56
176	12
177	21
178	3
179	2
180	1
181	1
182	1
183	1
184	2
185	4
186	1
187	1
188	2
189	1
190	4
191	137
192	15
193	20
194	2
195	2
196	1
197	1
198	0
199	3
200	1
201	0
202	2
203	1
204	3
205	1
206	0
207	5
208	6
209	11
210	2
211	2
212	0
213	2
214	0
215	0
216	0
217	1
218	0
219	1
220	0
221	1
222	1
223	7
224	3
225	1
226	2
227	0
228	1
229	0
230	0
231	1
232	0
233	1
234	1
235	204
236	126
237	49
238	23
239	4
240	2
241	0
242	0
243	0
244	0
245	0
246	0
247	0
248	0
249	0
250	0
251	0
252	0
253	0
254	0
255	0
256	5
257	1
258	0
259	0
260	0
261	0
262	0
263	0
264	1
265	0
266	3
267	6
268	4
269	1
270	1
271	0
272	0
273	0
274	0
275	0
276	0
277	0
278	0
279	1
280	0
281	0
282	0
283	0
284	1
285	0
286	0
287	0
288	0
289	0
290	0
291	0
292	0
293	0
294	0
295	0
296	0
297	0
298	0
300	121
301	17
302	33
303	4
304	4
305	0
306	0
307	0
308	0
