Mass Spectrum: 2,4,6,8,9,10-Hexathiatricyclo[3.3.1.1(3,7)]decane-1-propanoic acid, 3,5,7-trimethyl-
Formula: C10H14O2S6
CAS: 57274-38-1
Molecular weight: 358
m/z	intensity
12	0
13	0
14	0
15	6
17	0
18	1
19	0
24	0
25	0
26	1
27	9
28	4
29	8
30	0
31	1
32	2
33	2
34	3
35	1
36	0
37	0
38	0
39	4
40	0
41	2
42	1
43	3
44	2
45	30
46	3
47	5
48	0
49	0
50	0
51	0
52	0
53	1
54	1
55	68
56	4
57	7
58	45
59	999
60	35
61	71
62	1
63	1
64	3
65	1
66	0
67	0
68	0
69	3
70	1
71	48
72	4
73	4
74	0
75	1
76	12
77	4
78	1
79	0
80	0
81	0
82	0
83	7
84	0
85	3
86	1
87	2
88	1
89	29
90	1
91	12
92	6
93	12
94	1
95	1
96	0
97	1
98	1
99	1
100	0
101	0
102	0
103	2
104	0
105	3
106	0
107	0
108	0
109	0
110	0
111	1
112	0
113	0
114	0
115	0
116	3
117	239
118	162
119	23
120	12
121	1
122	0
123	2
124	0
125	11
126	0
127	1
128	0
129	1
130	1
131	1
132	1
133	1
134	0
135	0
136	0
137	0
141	0
142	0
143	1
144	3
145	15
146	1
147	1
148	0
149	24
150	119
151	35
152	16
153	4
154	0
155	0
156	0
157	1
158	0
159	0
160	0
161	1
162	0
163	2
164	0
165	0
166	0
167	0
169	0
170	0
171	0
173	0
174	0
175	19
176	70
177	17
178	7
179	2
180	0
181	0
182	0
183	13
184	1
185	2
186	0
187	0
188	0
189	0
190	0
191	1
192	0
193	0
194	0
201	0
202	3
203	26
204	3
205	2
206	0
207	6
208	64
209	59
210	15
211	10
212	1
213	0
217	0
223	0
230	0
233	0
234	0
235	4
236	0
237	0
240	0
241	1
242	0
243	0
267	27
268	3
269	5
270	0
271	0
299	0
300	0
301	0
358	31
359	4
360	8
361	1
362	1
363	0
