Mass Spectrum: 2,6-Naphthalenedione, octahydro-1,1,8a-trimethyl-, trans-
Formula: C13H20O2
CAS: 57289-17-5
Molecular weight: 208
m/z	intensity
18	10
27	69
29	58
39	102
40	33
41	314
42	75
43	149
44	10
51	22
52	16
53	109
54	36
55	320
56	42
57	51
65	37
66	18
67	208
68	83
69	323
70	90
71	41
77	60
78	16
79	86
80	21
81	180
82	50
83	162
84	36
85	51
86	60
91	53
92	12
93	99
94	36
95	171
96	91
97	224
98	34
99	11
105	30
106	12
107	65
108	26
109	168
110	159
111	121
112	22
119	25
120	13
121	39
122	108
123	999
124	131
125	196
126	25
133	35
134	14
135	47
136	31
137	134
138	35
139	33
147	38
148	17
149	16
150	15
151	119
152	196
153	54
162	25
165	72
166	78
167	11
175	25
179	10
180	19
190	15
193	79
194	12
208	746
209	112
210	12
