Mass Spectrum: Dodecanoic acid, 2,4,6-trimethyl-, methyl ester
Formula: C16H32O2
CAS: 57289-31-3
Molecular weight: 256
m/z	intensity
15	98
17	84
18	20
26	14
27	177
28	64
29	353
30	17
31	20
32	8
33	8
39	143
40	36
41	639
42	171
43	546
44	28
45	14
51	8
52	8
53	61
54	25
55	504
56	134
57	412
58	22
59	263
67	59
68	25
69	403
70	87
71	233
72	20
73	118
74	193
75	14
79	11
81	20
82	11
83	205
84	31
85	120
86	14
87	420
88	999
89	50
90	8
95	14
97	34
99	62
100	11
101	882
102	62
103	11
109	22
111	34
113	20
114	8
115	31
116	8
125	28
126	14
127	17
129	84
130	11
143	31
157	20
171	76
172	11
177	11
185	14
213	70
214	11
223	8
225	39
226	8
240	11
241	11
242	8
256	840
257	220
