Mass Spectrum: 5-Methyl-thiophene-2-carboxamide
Formula: C6H7NOS
CAS: 57280-37-2
Molecular weight: 141
m/z	intensity
39	30
45	78
50	9
51	29
52	9
53	187
69	40
70	9
96	20
97	139
110	20
111	30
125	999
126	78
127	60
141	677
142	60
143	40
