Mass Spectrum: 2,5-Piperazinedione, 3-(hydroxymethyl)-6-(phenylmethyl)-
Formula: C12H14N2O3
CAS: 57287-86-2
Molecular weight: 234
m/z	intensity
26	3
27	29
29	64
30	103
31	53
38	8
39	83
40	20
41	47
42	139
43	46
44	21
45	6
46	6
50	22
51	82
52	23
53	10
54	13
55	42
56	9
57	148
58	45
59	22
60	197
61	7
62	10
63	47
64	15
65	177
66	17
67	4
68	7
69	13
70	61
71	15
72	4
73	7
74	7
75	8
76	11
77	130
78	47
79	10
80	6
81	3
82	6
83	9
84	13
85	413
86	29
87	37
88	5
89	49
90	37
91	999
92	275
93	37
94	4
95	2
96	3
97	42
98	34
99	4
100	4
101	5
102	16
103	122
104	59
105	16
106	4
107	4
112	58
113	331
114	26
115	242
116	23
117	27
118	46
119	31
120	161
121	16
125	29
126	4
128	32
129	5
130	16
131	87
132	38
133	5
142	6
143	213
144	23
145	15
146	19
147	13
148	4
149	3
157	3
158	4
159	3
160	18
161	3
163	5
173	5
174	2
175	44
176	6
187	5
188	3
191	11
203	34
204	636
205	128
206	13
216	50
217	13
234	323
235	93
236	11
