Mass Spectrum: 1,2,15-Pentadecanetriol
Formula: C15H32O3
CAS: 57289-60-8
Molecular weight: 260
m/z	intensity
14	10
15	69
16	5
17	7
18	25
19	42
25	7
26	45
27	428
28	198
29	903
30	58
31	915
32	67
33	22
37	12
38	19
39	386
40	73
41	915
42	410
43	999
44	196
45	434
46	12
47	6
50	6
51	11
52	7
53	61
54	68
55	565
56	83
57	257
58	22
59	10
60	11
61	154
62	5
65	7
66	8
67	125
68	46
69	160
70	26
71	42
77	6
79	16
80	8
81	121
82	42
83	73
84	11
85	19
93	9
94	5
95	166
96	33
97	55
98	10
99	6
107	5
109	103
110	16
111	37
112	6
121	6
123	58
124	11
125	10
135	6
137	32
138	7
151	13
164	14
165	5
179	5
183	10
192	46
193	12
201	10
207	46
208	6
225	10
229	43
230	7
243	15
260	24
