Mass Spectrum: Androst-2-en-17-one, 3-hydroxy-, (5.beta.)-
Formula: C19H28O2
CAS: 57289-70-0
Molecular weight: 288
m/z	intensity
15	9
17	8
18	58
19	5
25	5
26	27
27	241
28	120
29	384
30	17
31	80
37	8
38	16
39	323
40	81
41	860
42	118
43	297
44	88
45	22
50	26
51	97
52	58
53	369
54	71
55	722
56	69
57	497
58	33
59	14
62	8
63	42
64	20
65	220
66	97
67	558
68	103
69	157
70	19
71	36
72	9
73	6
74	7
75	13
76	14
77	517
78	167
79	814
80	135
81	461
82	75
83	98
84	22
85	27
86	6
87	6
89	26
90	16
91	999
92	246
93	661
94	215
95	297
96	68
97	410
98	54
99	10
100	6
101	6
102	22
103	112
104	95
105	891
106	261
107	666
108	158
109	158
110	66
111	53
112	6
113	5
114	9
115	200
116	95
117	338
118	152
119	527
120	384
121	379
122	103
123	120
124	50
125	80
126	12
127	51
128	175
129	251
130	121
131	415
132	161
133	317
134	126
135	205
136	63
137	60
138	28
139	14
140	7
141	108
142	86
143	358
144	44
145	502
146	160
147	175
148	151
149	169
150	69
151	37
152	24
153	29
154	21
155	83
156	52
157	236
158	128
159	420
160	131
161	150
162	54
163	60
164	39
165	29
166	13
167	27
168	17
169	77
170	47
171	195
172	115
173	210
174	170
175	114
176	210
177	394
178	92
179	27
180	8
181	44
182	20
183	74
184	37
185	200
186	72
187	103
188	60
189	58
190	39
191	15
192	8
193	6
194	6
195	66
196	24
197	85
198	36
199	230
200	74
201	85
202	92
203	476
204	91
205	18
206	9
207	5
208	5
209	27
210	15
211	106
212	49
213	343
214	163
215	81
216	66
217	45
218	22
219	11
222	5
223	11
224	7
225	14
226	29
227	158
228	143
229	112
230	55
231	189
232	54
233	18
237	205
238	45
239	12
240	6
241	65
242	161
243	36
244	68
245	61
246	18
251	5
252	26
253	36
254	20
255	845
256	174
257	28
258	7
259	10
260	42
261	10
268	5
269	20
270	650
271	177
272	37
273	108
274	21
286	13
287	18
288	860
289	191
290	29
