Mass Spectrum: 2,4,6,8-Tetrathiatricyclo[3.3.1.1(3,7)]decane-1-thiol, 3,5-dimethyl-, (.+/-.)-
Formula: C8H12S5
CAS: 57289-10-8
Molecular weight: 268
m/z	intensity
12	1
13	0
14	1
15	10
16	0
17	5
18	21
19	0
20	0
22	0
24	0
25	2
26	9
27	38
28	9
29	7
30	1
31	0
32	39
33	33
34	73
35	3
36	5
37	6
38	12
39	114
40	13
41	79
42	5
43	14
44	20
45	309
46	16
47	28
48	2
49	3
50	12
51	21
52	10
53	40
54	5
55	7
56	2
57	25
58	118
59	999
60	31
61	40
62	4
63	6
64	15
65	11
66	4
67	7
68	3
69	40
70	10
71	60
72	9
73	40
74	22
75	11
76	36
77	47
78	9
79	10
80	2
81	7
82	10
83	52
84	33
85	137
86	21
87	20
88	4
89	3
90	3
91	23
92	10
93	7
94	5
95	4
96	2
97	33
98	18
99	24
100	6
101	16
102	3
103	125
104	7
105	16
106	4
107	2
108	2
109	9
110	10
111	68
112	36
113	40
114	5
115	7
116	40
117	436
118	39
119	54
120	5
121	8
122	3
123	9
124	12
125	80
126	14
127	10
128	2
129	25
130	54
131	27
132	7
133	3
134	6
135	20
136	8
137	12
138	31
139	14
140	4
141	8
142	14
143	105
144	80
145	53
146	12
147	5
148	20
149	90
150	18
151	18
152	3
153	6
154	5
155	10
156	10
157	30
158	7
159	16
160	2
161	85
162	12
163	21
164	3
165	3
166	3
167	20
168	18
169	97
170	63
171	120
172	19
173	12
174	2
175	19
176	5
177	9
178	1
179	1
180	0
181	1
182	0
183	0
184	0
185	1
186	0
187	1
188	0
189	2
190	0
191	0
192	0
193	2
194	1
195	1
196	0
197	0
198	2
199	4
200	9
201	18
202	9
203	119
204	57
205	21
206	9
207	2
208	1
209	1
210	0
211	0
212	0
218	0
219	0
220	0
221	0
222	0
223	0
224	0
225	0
227	0
228	0
229	0
230	0
233	0
235	29
236	103
237	20
238	20
239	3
240	2
241	0
248	0
250	0
251	0
252	0
253	0
254	0
255	0
256	0
267	0
268	500
269	48
270	84
271	10
272	9
273	1
274	0
