Mass Spectrum: 4H-Thiopyran-4-one, 2,3-dihydro-2,6-dimethyl-2-(2-oxopropyl)-, (.+/-.)-
Formula: C10H14O2S
CAS: 57288-85-4
Molecular weight: 198
m/z	intensity
12	0
13	0
14	2
15	34
16	0
17	0
18	1
19	0
20	0
25	0
26	5
27	60
28	19
29	62
30	1
31	3
32	1
33	1
34	1
35	0
36	0
37	3
38	11
39	168
40	22
41	64
42	15
43	761
44	18
45	108
46	8
47	24
48	1
49	1
50	5
51	13
52	5
53	39
54	7
55	113
56	8
57	13
58	23
59	168
60	6
61	14
62	1
63	4
64	1
65	8
66	3
67	63
68	5
69	24
70	6
71	83
72	292
73	54
74	23
75	5
76	2
77	17
78	4
79	20
80	5
81	9
82	10
83	33
84	3
85	58
86	4
87	9
88	1
89	1
90	1
91	8
92	1
93	25
94	5
95	12
96	12
97	31
98	18
99	24
100	999
101	380
102	61
103	18
104	1
105	5
106	3
107	6
108	5
109	9
110	3
111	11
112	12
113	55
114	35
115	19
116	4
117	4
118	0
119	1
120	1
121	7
122	6
123	58
124	8
125	88
126	8
127	15
128	3
129	1
130	1
131	3
132	1
133	4
134	1
135	1
136	0
137	2
138	3
139	11
140	31
141	433
142	36
143	23
144	2
145	1
146	0
147	3
148	1
149	4
150	1
151	0
152	0
153	1
154	1
155	101
156	11
157	6
158	0
159	1
160	0
161	0
162	0
163	0
164	1
165	31
166	3
167	14
168	2
169	1
170	1
171	1
172	0
173	0
174	0
175	0
176	0
177	0
178	0
179	3
180	4
181	8
182	1
183	39
184	4
185	2
186	0
187	0
188	0
189	0
195	0
196	0
197	2
198	469
199	102
200	31
201	5
