Mass Spectrum: Silane, (9,10-dimethyl-2,4,6,8-tetrathiatricyclo[3.3.1.1(3,7)]decane-1,3,5-triyl)tris[trimethyl-
Formula: C17H36S4Si3
CAS: 57289-38-0
Molecular weight: 452
m/z	intensity
14	0
15	2
16	1
25	0
26	2
27	3
28	17
29	4
30	0
31	2
32	5
33	0
34	2
35	0
36	1
37	0
38	1
39	5
40	1
41	9
42	1
43	17
44	16
45	90
46	5
47	4
48	1
49	0
50	1
51	1
52	1
53	5
54	1
55	5
56	1
57	5
58	10
59	32
60	3
61	2
62	0
63	1
64	4
65	2
66	1
67	7
68	1
69	5
70	2
71	7
72	9
73	999
74	91
75	53
76	6
77	7
78	1
79	2
80	0
81	2
82	1
83	14
84	4
85	22
86	2
87	1
88	0
89	1
90	7
91	41
92	4
93	7
94	1
95	4
96	1
97	31
98	5
99	5
100	0
101	3
102	4
103	4
104	1
105	7
106	2
107	2
108	1
109	5
110	2
111	5
112	1
113	2
114	1
115	8
116	2
117	237
118	27
119	23
120	1
121	1
122	1
123	4
124	4
125	33
126	3
127	4
128	2
129	8
130	2
131	7
132	1
133	4
134	1
135	4
136	1
137	2
138	0
139	2
140	0
141	5
142	2
143	7
144	2
145	21
146	4
147	10
148	2
149	13
150	1
151	3
152	1
153	1
154	1
155	70
156	11
157	25
158	3
159	5
160	1
161	1
162	1
163	17
164	3
165	5
166	1
167	2
168	1
169	7
170	2
171	4
172	1
173	3
174	1
175	27
176	4
177	6
178	1
179	3
180	1
181	2
182	1
183	2
184	1
185	2
186	16
187	36
188	7
189	85
190	17
191	16
192	2
193	1
194	2
195	1
196	1
197	46
198	9
199	7
200	1
201	11
202	12
203	6
204	2
205	1
206	0
207	4
208	1
209	2
210	1
211	3
212	0
213	2
214	3
215	7
216	3
217	2
218	1
219	7
220	1
221	4
222	1
223	3
224	0
225	5
226	1
227	5
228	4
229	45
230	8
231	9
232	2
233	2
234	7
235	2
236	1
237	0
238	0
239	0
240	1
241	3
242	6
243	21
244	5
245	5
246	1
247	43
248	9
249	8
250	1
251	1
252	0
253	0
254	0
255	0
256	0
257	0
258	1
259	41
260	9
261	28
262	8
263	9
264	2
265	1
266	25
267	5
268	5
269	4
270	3
271	2
272	1
273	2
274	162
275	171
276	63
277	31
278	7
279	9
280	2
281	2
282	1
283	0
284	0
285	0
286	0
287	15
288	3
289	3
290	1
291	2
292	1
293	3
294	1
295	0
296	0
297	3
298	1
299	2
300	0
301	3
302	28
303	25
304	9
305	5
306	7
307	75
308	20
309	16
310	3
311	1
312	3
313	1
314	1
315	1
316	0
319	1
331	1
332	0
333	0
334	1
335	2
336	0
337	0
339	0
346	0
347	21
348	6
349	5
350	1
364	1
365	0
366	0
379	7
380	2
381	1
382	0
387	1
388	0
389	0
419	5
420	2
421	1
422	0
437	9
438	3
439	3
440	1
441	0
452	136
453	51
454	47
455	15
456	6
457	1
458	0
