Mass Spectrum: 2,4,6,8,9-Pentathiatricyclo[3.3.1.1(3,7)]decane-1-carboxamide, 3,5,7-trimethyl-
Formula: C9H13NOS5
CAS: 57289-33-5
Molecular weight: 311
m/z	intensity
14	1
15	13
16	1
17	2
18	40
26	3
27	11
28	48
29	1
30	1
32	13
33	5
34	11
35	0
36	0
37	0
38	2
39	24
40	3
41	17
42	5
43	10
44	40
45	55
46	4
47	11
48	0
49	0
50	2
51	4
52	3
53	11
54	2
55	2
56	1
57	12
58	58
59	999
60	37
61	48
62	1
63	0
64	6
65	2
66	2
67	4
68	1
69	8
70	3
71	9
72	2
73	7
74	1
75	2
76	17
77	5
78	2
79	2
80	1
81	1
82	1
83	18
84	14
85	51
86	7
87	5
88	2
89	1
90	0
91	12
92	7
93	9
94	1
95	1
96	15
97	29
98	4
99	10
100	3
101	7
102	1
103	9
104	7
105	1
106	0
107	1
108	0
109	2
110	7
111	35
112	44
113	69
114	7
115	4
116	17
117	117
118	34
119	14
120	5
121	1
122	1
123	2
124	1
125	1
126	0
127	7
128	182
129	58
130	39
131	20
132	3
133	2
134	0
135	0
136	2
137	2
138	6
139	12
140	1
141	1
142	2
143	25
144	100
145	234
146	44
147	25
148	4
149	7
150	21
151	3
152	3
153	0
154	7
155	41
156	158
157	15
158	8
159	1
160	206
161	41
162	51
163	6
164	5
169	1
170	2
171	11
172	1
173	2
174	18
175	17
176	5
177	9
178	11
179	3
180	2
181	0
182	2
183	1
186	10
187	100
188	96
189	19
190	10
191	1
202	2
203	25
204	3
205	3
206	0
207	0
208	1
209	0
218	1
219	3
220	379
221	41
222	55
223	5
224	2
229	0
246	51
247	300
248	41
249	41
250	5
251	2
252	5
253	0
254	0
278	1
279	0
293	0
311	282
312	44
313	82
314	13
315	9
316	1
