Mass Spectrum: 2(1H)-Phenanthrenone, 3,4,4a,9,10,10a-hexahydro-1,1,4a-trimethyl-8-(1-methylethyl)-7-(phenylmethoxy)-, (4aS-trans)-
Formula: C27H34O2
CAS: 57289-44-8
Molecular weight: 390
m/z	intensity
39	18
41	37
43	34
51	10
55	34
65	64
67	14
69	24
77	17
81	10
83	19
89	14
91	999
92	83
93	10
105	20
107	13
115	28
117	11
119	14
121	12
125	16
127	18
128	37
129	33
131	25
133	17
141	33
142	18
143	21
144	20
145	39
147	28
152	21
153	24
154	11
155	20
156	10
157	40
158	19
159	50
160	10
161	16
165	26
167	13
169	22
170	17
171	49
172	17
173	37
175	27
179	11
181	16
182	31
183	30
184	14
185	48
186	16
187	39
189	17
195	12
197	23
198	11
199	84
200	23
201	57
202	20
211	12
213	48
214	14
215	37
223	10
225	14
227	30
228	11
229	26
238	13
239	26
240	16
241	30
242	11
243	86
244	15
253	17
255	14
257	30
258	11
269	17
271	18
283	34
284	18
285	200
286	73
287	12
291	15
298	15
299	51
300	99
301	19
333	84
334	20
347	40
348	19
362	11
373	20
375	287
376	82
377	12
388	17
389	12
390	805
391	227
392	35
