Mass Spectrum: 5-Methyl-2-(1-methylethylidene)cyclohexan-1-one oxime
Formula: C10H17NO
CAS: 57291-09-5
Molecular weight: 167
m/z	intensity
34	0
37	7
38	30
39	385
40	82
41	484
42	92
43	85
44	17
45	11
46	7
48	0
50	21
51	66
52	49
53	193
54	63
55	172
56	45
57	18
58	11
59	6
60	2
61	1
62	5
63	17
64	12
65	79
66	46
67	185
68	58
69	84
70	23
71	7
72	2
73	9
74	3
75	2
77	97
78	27
79	115
80	66
81	92
82	43
83	10
84	22
85	14
86	2
87	0
88	0
89	2
91	63
92	22
93	91
94	219
95	43
96	74
97	30
98	19
99	4
100	0
102	1
103	4
104	5
105	19
106	43
107	69
108	108
109	29
110	231
111	999
112	76
113	5
114	0
115	2
116	1
117	6
118	8
119	8
120	31
121	34
122	33
124	339
125	51
126	8
127	1
128	0
129	0
130	1
131	2
132	5
133	5
134	24
135	20
136	12
138	213
139	22
140	1
144	0
146	1
148	12
149	6
150	48
152	129
153	13
154	1
164	0
166	41
167	9
168	1
