Mass Spectrum: Pregn-5-en-11-one, 3,17,20-tris[(trimethylsilyl)oxy]-, (3.beta.,20R)-
Formula: C30H56O4Si3
CAS: 57305-25-6
Molecular weight: 564
m/z	intensity
41	20
43	45
44	10
45	40
47	10
53	10
55	55
57	10
59	25
61	15
67	30
69	25
72	15
73	999
74	110
75	250
76	20
77	20
79	30
81	70
83	15
85	10
91	90
92	15
93	80
94	15
95	65
97	10
101	20
103	20
105	90
106	15
107	120
108	10
109	10
115	25
116	15
117	250
118	30
119	90
120	15
121	40
123	25
127	10
128	10
129	185
130	45
131	100
132	25
133	75
134	10
135	15
141	20
142	10
143	90
144	20
145	160
146	35
147	310
148	45
149	45
151	10
155	30
156	15
157	55
158	15
159	25
160	10
161	25
163	10
167	20
168	15
169	85
170	15
171	35
172	10
173	25
175	20
179	20
181	20
182	15
183	30
184	10
185	20
186	10
187	30
191	40
192	10
193	20
194	10
195	25
196	10
197	30
199	20
201	15
207	20
209	35
210	10
211	100
212	20
213	20
217	25
218	35
219	15
221	30
222	10
223	25
225	100
226	20
227	15
231	30
232	10
233	10
235	10
237	30
238	10
239	60
240	15
241	10
245	15
246	10
249	35
250	10
251	10
267	300
268	80
269	15
281	15
294	20
295	20
315	15
341	10
355	15
356	15
357	280
358	90
359	25
369	15
384	20
385	10
415	10
429	10
447	999
448	410
449	180
450	50
451	15
459	35
460	15
461	5
474	5
549	25
550	10
551	5
564	15
565	10
566	5
