Mass Spectrum: Farnesol, TMS derivative
Formula: C18H34OSi
CAS: 57305-02-9
Molecular weight: 294
m/z	intensity
15	1
26	1
27	15
29	18
30	1
31	1
37	1
38	1
39	42
40	17
41	344
42	21
43	48
44	10
45	70
46	5
47	34
48	2
49	1
50	2
51	9
52	6
53	90
54	9
55	87
56	9
57	18
58	8
59	29
60	8
61	36
62	3
63	3
64	1
65	22
66	10
67	170
68	134
69	999
70	61
71	8
73	974
74	95
75	533
76	39
77	65
78	10
79	92
80	135
81	329
82	43
83	21
84	3
85	8
86	1
87	5
88	3
89	12
90	2
91	74
92	52
93	429
94	81
95	140
96	20
97	12
98	2
99	9
100	1
101	16
102	3
103	174
104	19
105	80
106	28
107	253
108	55
109	169
110	23
111	12
112	2
113	19
114	3
115	27
116	6
117	13
118	3
119	96
120	38
121	194
122	94
123	121
124	18
125	9
126	2
127	72
128	12
129	20
130	4
131	10
132	2
133	73
134	49
135	271
136	115
137	31
138	4
139	2
140	1
141	40
142	13
143	230
144	74
145	19
146	4
147	51
148	52
149	44
150	6
151	2
153	2
154	1
155	35
156	134
157	108
158	19
159	6
160	3
161	115
162	26
163	7
164	1
165	3
167	4
168	3
169	84
170	17
171	6
172	1
175	19
176	11
177	4
178	4
179	2
181	39
182	9
183	35
184	10
185	3
189	80
190	13
191	51
192	8
193	2
195	7
196	2
197	5
198	2
199	10
200	2
201	1
203	14
204	31
205	7
206	1
209	20
210	9
211	12
212	3
213	1
214	2
223	5
224	2
225	3
226	1
237	1
238	1
239	1
251	3
252	1
261	1
279	7
280	2
293	1
294	9
295	2
296	1
