Mass Spectrum: Pregnane-3,20-dione, 17-[(trimethylsilyl)oxy]-, bis(O-methyloxime), (5.beta.)-
Formula: C26H46N2O3Si
CAS: 57305-29-0
Molecular weight: 462
m/z	intensity
41	260
42	230
43	190
44	85
45	140
46	10
47	25
53	80
54	45
55	340
56	50
57	35
58	35
59	75
60	15
61	20
65	35
66	20
67	280
68	65
69	130
70	90
71	30
72	90
73	999
74	190
75	260
76	20
77	100
78	30
79	250
80	85
81	240
82	80
83	30
84	55
85	20
86	30
87	20
89	90
90	15
91	220
92	60
93	240
94	100
95	140
96	65
97	25
98	20
99	40
100	60
101	35
102	10
103	50
104	30
105	210
106	65
107	180
108	90
109	80
110	40
111	20
112	25
113	70
114	130
115	95
116	45
117	95
118	50
119	140
120	85
121	85
122	65
123	25
124	35
125	15
126	25
127	20
128	35
129	65
130	30
131	110
132	55
133	105
134	75
135	45
136	30
137	20
138	35
139	15
140	20
141	30
142	70
143	80
144	65
145	130
146	60
147	120
148	45
149	25
150	20
151	15
152	40
153	20
154	50
155	50
156	640
157	160
158	380
159	120
160	60
161	45
162	35
163	10
164	20
165	15
166	15
167	15
168	30
169	80
170	310
171	80
172	380
173	70
174	50
175	80
176	20
177	10
178	10
180	15
181	20
182	50
183	45
184	80
185	50
186	45
187	150
188	460
189	60
190	30
191	20
192	10
193	15
194	10
195	25
196	25
197	20
198	45
199	30
200	190
201	55
202	25
203	10
204	10
206	10
207	130
208	35
209	30
210	25
211	35
212	25
213	15
214	30
215	10
216	15
220	10
221	25
222	20
223	15
224	35
225	20
226	15
227	25
228	25
229	10
230	15
236	10
237	10
238	10
239	10
240	20
241	15
242	35
243	10
244	30
245	10
248	10
251	10
252	10
253	10
254	10
257	10
258	10
260	15
261	10
262	10
264	10
267	10
268	55
269	25
270	15
274	20
275	130
276	30
281	55
282	15
283	10
286	20
287	10
292	15
293	10
295	15
298	10
300	75
301	20
309	50
310	35
311	15
313	40
314	10
319	230
320	45
321	10
327	20
332	35
333	10
341	180
342	60
343	15
347	10
348	10
355	25
357	10
358	15
360	15
372	25
373	10
374	20
375	10
385	10
389	10
390	15
399	30
400	25
401	30
402	20
415	10
429	20
430	40
431	999
432	410
433	100
434	20
435	5
447	65
448	20
449	5
462	220
463	70
464	20
465	5
