Mass Spectrum: 3-Hydroxyandrostane-11,17-dione 17-(O-methyloxime), (3.alpha.,5.beta.)-, TMS derivative
Formula: C23H39NO3Si
CAS: 57305-06-3
Molecular weight: 405
m/z	intensity
41	340
42	64
43	109
44	34
45	149
46	9
47	124
48	4
49	4
50	9
51	14
52	20
53	140
54	49
55	324
56	34
57	34
58	29
59	89
60	20
61	74
62	4
63	4
64	4
65	64
66	49
67	364
68	74
69	100
70	29
71	20
72	24
73	999
74	100
75	920
76	64
77	214
78	44
79	420
80	100
81	344
82	69
83	44
84	20
85	20
86	4
87	44
88	24
89	29
90	4
91	360
92	74
93	369
94	144
95	180
96	60
97	29
98	14
99	14
100	9
101	69
102	9
103	34
104	29
105	309
106	80
107	260
108	189
109	209
110	84
111	29
112	14
113	20
114	4
115	44
116	29
117	74
118	34
119	140
120	60
121	149
122	69
123	34
124	34
125	74
126	40
127	20
128	20
129	184
130	54
131	109
132	44
133	120
134	49
135	54
136	64
137	20
138	49
139	54
140	34
141	24
142	29
143	44
144	24
145	74
146	44
147	154
148	54
149	44
150	20
151	14
152	40
153	9
154	9
155	49
156	20
157	34
158	29
159	64
160	60
161	120
162	60
163	20
164	20
165	20
166	24
167	24
168	14
169	20
170	14
171	29
172	20
173	54
174	44
175	89
176	29
177	49
178	20
179	9
180	9
181	24
182	14
183	24
184	14
185	24
186	20
187	24
188	64
189	20
190	29
191	9
192	20
193	14
194	69
195	29
196	14
197	20
198	14
199	24
200	20
201	20
202	24
203	9
204	9
205	4
206	4
207	54
208	24
209	24
210	44
211	20
212	14
213	20
214	20
215	180
216	64
217	14
218	9
219	9
220	160
221	40
222	14
223	34
224	14
225	20
226	14
227	49
228	40
229	40
230	29
231	9
232	14
233	14
234	9
235	14
236	9
237	4
238	4
239	9
240	20
241	14
242	24
243	14
244	9
245	4
246	14
247	9
248	4
249	9
250	14
251	24
252	14
253	44
254	264
255	49
256	54
257	14
258	14
259	4
260	20
261	949
262	169
263	20
264	4
265	4
266	29
267	34
268	54
269	400
270	120
271	20
272	9
273	4
274	34
275	9
276	14
277	4
282	24
283	14
284	474
285	104
286	29
287	20
288	9
289	9
290	4
296	4
297	4
298	9
299	9
300	999
301	200
302	29
303	14
304	4
308	4
313	4
314	60
315	800
316	209
317	24
318	4
328	4
329	4
332	4
334	4
343	20
344	120
345	29
346	14
347	4
358	9
359	4
360	4
372	4
374	20
375	9
376	4
390	74
391	20
392	4
404	4
405	349
406	124
407	29
408	4
