Mass Spectrum: 3-Iodo-1-nitropropane
Formula: C3H6INO2
CAS: 57308-87-9
Molecular weight: 215
m/z	intensity
28	151
29	29
30	178
31	9
32	40
37	10
38	29
39	262
40	48
41	781
42	140
43	19
44	19
46	40
54	19
55	20
57	50
60	248
88	999
89	49
127	100
128	29
141	109
154	29
155	20
169	60
181	29
215	40
