Mass Spectrum: Pregn-4-ene-3,20-dione, 11,17-bis[(trimethylsilyl)oxy]-, bis(O-methyloxime), (11.beta.)-
Formula: C29H52N2O4Si2
CAS: 57305-37-0
Molecular weight: 548
m/z	intensity
41	120
42	105
43	125
44	70
45	160
46	10
47	25
48	5
49	5
50	5
51	10
52	10
53	35
54	20
55	190
56	40
57	60
58	30
59	85
60	15
61	40
62	5
63	10
64	5
65	25
66	20
67	65
68	45
69	75
70	45
71	40
72	80
73	999
74	310
75	410
76	45
77	70
78	30
79	110
80	40
81	90
82	50
83	50
84	35
85	45
86	20
87	15
88	5
89	110
90	15
91	200
92	45
93	180
94	60
95	85
96	65
97	55
98	20
99	35
100	40
101	40
102	15
103	85
104	65
105	150
106	80
107	70
108	70
109	45
110	50
111	30
112	25
113	60
114	90
115	80
116	60
117	160
118	85
119	160
120	120
121	100
122	65
123	90
124	25
125	35
126	30
127	35
128	70
129	105
130	90
131	120
132	100
133	115
134	75
135	130
136	50
137	80
138	30
139	30
140	20
141	50
142	115
143	150
144	155
145	125
146	100
147	220
148	60
149	90
150	50
151	130
152	95
153	60
154	70
155	75
156	370
157	120
158	400
159	130
160	90
161	70
162	35
163	30
164	40
165	40
166	35
167	50
168	130
169	230
170	250
171	140
172	270
173	65
174	55
175	70
176	65
177	75
178	40
179	55
180	30
181	80
182	85
183	75
184	140
185	50
186	85
187	90
188	400
189	100
190	85
191	110
192	55
193	60
194	65
195	100
196	65
197	80
198	55
199	50
200	220
201	55
202	50
203	25
204	25
205	45
206	45
207	300
208	110
209	85
210	90
211	55
212	100
213	45
214	55
215	25
216	35
217	30
218	30
219	45
220	35
221	200
222	80
223	105
224	120
225	50
226	75
227	25
228	20
229	35
230	35
231	35
232	45
233	40
234	50
235	55
236	55
237	65
238	80
239	60
240	280
241	60
242	45
243	40
244	30
245	200
246	75
247	65
248	50
249	50
250	45
251	60
252	40
253	25
254	40
255	15
256	110
257	50
258	35
259	30
260	45
261	30
262	60
263	40
264	60
265	70
266	60
267	35
268	30
269	25
270	60
271	170
272	40
273	25
274	40
275	20
276	25
277	25
278	20
279	30
280	30
281	130
282	80
283	50
284	25
285	20
286	15
287	10
288	30
289	25
290	35
291	40
292	55
293	15
294	25
295	55
296	75
297	35
298	20
299	15
300	15
301	5
302	15
303	10
304	15
305	105
306	55
307	40
308	20
309	45
310	15
311	15
312	15
313	25
314	25
315	20
316	20
317	10
318	10
319	5
320	30
321	25
322	20
323	50
324	20
325	20
326	25
327	20
328	25
329	35
330	140
331	170
332	65
333	20
334	10
335	20
336	20
337	260
338	90
339	20
340	35
341	45
342	45
343	25
344	20
345	5
346	15
347	5
348	20
349	10
350	5
351	10
352	10
353	40
354	45
355	105
356	55
357	25
358	20
359	20
360	60
361	650
362	180
363	45
364	20
365	10
366	5
367	20
368	75
369	45
370	40
371	25
372	20
373	35
374	35
375	15
376	10
377	5
378	5
379	10
380	10
381	25
382	15
383	10
384	5
385	35
386	40
387	15
388	10
389	5
393	5
394	10
395	110
396	40
397	65
398	25
399	30
400	15
401	20
402	10
403	25
404	15
405	65
406	30
407	5
409	5
410	5
411	15
412	10
413	35
414	10
415	20
416	10
417	5
418	5
425	20
426	50
427	350
428	105
429	65
430	40
431	20
432	5
433	5
441	5
442	15
443	85
444	60
445	60
446	25
447	10
448	5
456	10
457	15
458	50
459	30
460	20
461	10
462	5
469	5
470	5
471	5
472	5
473	5
474	10
475	30
476	20
477	10
482	5
483	10
484	15
485	95
486	80
487	220
488	130
489	60
490	20
491	15
492	10
500	5
501	15
502	15
503	45
504	20
505	15
506	5
512	5
513	10
514	20
515	40
516	170
517	999
518	620
519	340
520	90
521	25
522	15
523	10
530	5
531	5
532	10
533	95
534	35
535	20
536	5
545	5
546	15
547	40
548	600
549	250
550	90
551	30
552	10
553	5
