Mass Spectrum: Androst-5-en-17-one, 3,16-bis[(trimethylsilyl)oxy]-, O-(phenylmethyl)oxime, (3.beta.,16.alpha.)-
Formula: C32H51NO3Si2
CAS: 57305-14-3
Molecular weight: 553
m/z	intensity
41	54
43	29
44	14
45	54
47	20
50	9
51	20
53	14
55	49
57	9
59	40
61	20
65	49
67	44
68	9
69	14
70	9
72	9
73	820
74	80
75	300
76	24
77	94
78	20
79	69
80	9
81	89
82	9
83	9
89	14
90	9
91	999
92	89
93	64
94	14
95	34
100	14
101	29
103	34
104	14
105	129
106	29
107	60
108	14
109	14
115	20
116	14
117	49
118	20
119	69
120	24
121	24
122	9
128	24
129	200
130	40
131	69
132	20
133	49
134	14
135	24
141	14
142	20
143	64
144	34
145	60
146	20
147	29
148	9
149	9
155	34
156	20
157	60
158	24
159	44
160	20
161	9
165	14
167	9
168	9
169	34
170	20
171	34
172	14
173	14
174	9
175	9
179	9
180	9
181	20
182	14
183	29
184	24
185	29
186	9
193	9
194	9
195	20
196	14
197	34
198	24
199	20
200	14
207	14
208	9
209	20
210	24
211	29
212	9
213	34
214	14
221	9
222	14
223	14
224	40
225	14
226	20
227	9
237	14
238	14
239	49
240	29
241	9
250	49
251	60
252	20
257	9
264	9
265	14
266	209
267	40
281	4
282	14
283	9
314	4
315	4
316	4
329	4
340	9
341	20
342	9
343	4
356	100
357	24
358	9
359	4
372	9
373	9
374	4
417	14
418	9
419	4
430	9
431	29
432	20
433	9
434	4
445	9
446	209
447	89
448	34
449	9
450	4
462	20
463	9
464	4
538	14
539	9
540	4
553	14
554	4
