Mass Spectrum: 2-(2-Carboxyethyl)-6,6-dimethyl-3-oxocyclohex-1-enecarboxylic acid
Formula: C12H16O5
CAS: 57304-91-3
Molecular weight: 240
m/z	intensity
25	3
26	31
27	606
28	213
29	488
30	13
31	85
32	1
35	2
36	5
37	5
38	21
39	607
40	116
41	999
42	298
43	859
44	38
45	726
46	30
47	15
48	2
49	2
50	38
51	244
52	148
53	551
54	78
55	908
56	114
57	82
58	16
59	92
60	105
61	23
62	13
63	83
64	55
65	382
66	147
67	361
68	69
69	193
70	72
71	45
72	7
73	39
74	16
75	36
76	23
77	832
78	206
79	748
80	154
81	226
82	73
83	103
84	27
85	19
86	13
87	10
88	13
89	32
90	30
91	762
92	163
93	569
94	120
95	267
96	85
97	123
98	66
99	22
100	6
101	14
102	12
103	64
104	30
105	359
106	130
107	470
108	141
109	190
110	85
111	118
112	36
113	14
114	10
115	45
116	20
117	63
118	22
119	117
120	119
121	299
122	84
123	171
124	110
125	114
126	40
127	16
128	11
129	13
130	14
131	77
132	32
133	494
134	170
135	444
136	313
137	159
138	137
139	96
140	27
141	16
142	10
143	13
144	9
145	41
146	13
147	67
148	269
149	577
150	277
151	186
152	155
153	66
154	20
155	10
156	10
157	8
158	11
159	15
160	21
161	448
162	93
163	464
164	66
165	138
166	218
167	126
168	27
169	21
170	10
172	7
173	7
174	7
175	27
176	376
177	302
178	352
179	759
180	312
181	73
182	18
183	16
184	262
185	29
186	24
189	63
190	9
191	4
192	4
193	14
194	788
195	171
196	41
197	19
198	3
199	1
202	2
203	7
204	376
205	70
206	18
207	79
208	12
209	3
212	58
213	8
214	2
221	7
222	290
223	101
224	14
225	7
226	1
239	2
240	501
241	76
242	11
