Mass Spectrum: Androstan-17-one, 3-[(trimethylsilyl)oxy]-, O-(phenylmethyl)oxime, (3.alpha.,5.beta.)-
Formula: C29H45NO2Si
CAS: 57305-12-1
Molecular weight: 467
m/z	intensity
41	134
42	21
43	60
44	49
45	49
47	24
50	24
51	40
52	20
53	34
54	20
55	109
56	27
57	36
58	16
59	34
61	30
63	10
65	49
66	14
67	104
68	74
69	47
70	29
71	14
72	11
73	487
74	60
75	396
76	34
77	129
78	40
79	111
80	20
81	113
82	40
83	30
84	24
85	11
89	20
91	999
92	104
93	109
94	44
95	80
96	194
97	40
98	9
101	20
103	20
104	14
105	114
106	60
107	100
108	60
109	69
110	24
111	10
115	20
116	9
117	34
118	20
119	61
120	29
121	40
122	27
123	29
125	14
128	20
129	44
130	20
131	40
132	20
133	60
134	40
135	49
136	14
143	20
144	20
145	40
146	29
147	164
148	47
149	31
155	29
157	16
158	14
159	30
160	29
161	44
162	20
163	40
164	14
171	14
173	21
174	18
175	14
176	20
177	14
179	9
185	11
187	11
188	18
191	40
192	11
193	27
197	29
198	11
199	14
200	9
201	20
202	14
207	149
208	64
209	49
213	40
214	24
215	20
216	20
221	49
222	20
255	49
256	49
265	14
267	29
268	14
269	14
270	300
271	94
272	24
281	49
295	29
325	9
327	20
341	24
345	20
346	44
347	14
355	40
356	14
360	220
361	69
362	27
369	11
376	9
415	9
429	29
430	14
452	9
453	4
467	16
468	5
