Mass Spectrum: Androst-9(11)-en-17-one, 3-[(trimethylsilyl)oxy]-, (3.alpha.,5.alpha.)-
Formula: C22H36O2Si
CAS: 57305-04-1
Molecular weight: 360
m/z	intensity
41	749
42	69
43	309
44	89
45	400
46	29
47	249
51	29
53	220
54	20
55	689
56	29
57	100
58	49
59	200
60	49
61	209
65	129
66	20
67	400
68	49
69	129
71	49
72	49
73	999
74	200
75	999
76	120
77	409
78	100
79	549
80	100
81	369
82	20
83	49
85	20
89	49
91	900
92	200
93	400
94	149
95	280
96	20
97	89
101	100
102	20
103	109
104	100
105	909
106	349
107	369
108	200
109	200
110	20
111	29
115	180
116	100
117	129
118	180
119	400
120	120
121	100
122	49
123	89
127	49
128	149
129	449
130	129
131	420
132	120
133	189
134	80
135	49
136	20
138	20
141	120
142	120
143	309
144	209
145	440
146	109
147	269
148	100
149	20
153	20
154	9
155	280
156	109
157	200
158	200
159	200
160	69
161	109
162	60
165	20
167	20
169	129
170	69
171	169
172	69
173	100
174	20
175	20
176	9
181	49
182	20
183	100
184	20
185	100
195	100
196	20
197	300
198	100
199	149
200	20
201	20
209	20
211	120
212	100
213	149
214	29
227	100
229	80
237	269
238	49
241	9
242	20
251	9
252	200
253	100
254	49
255	999
256	200
257	20
269	20
270	100
271	20
327	20
342	9
345	80
360	309
361	100
362	9
