Mass Spectrum: Pregn-5-en-20-one, 3,16-bis[(trimethylsilyl)oxy]-, O-methyloxime, (3.beta.,16.alpha.)-
Formula: C28H51NO3Si2
CAS: 57305-31-4
Molecular weight: 505
m/z	intensity
41	114
42	164
43	54
44	140
45	114
46	14
47	49
51	9
52	9
53	40
54	24
55	160
56	29
57	24
58	20
59	124
60	20
61	74
62	4
63	4
65	24
66	14
67	154
68	29
69	49
70	60
71	9
72	29
73	999
74	269
75	999
76	80
77	134
78	29
79	234
80	60
81	274
82	69
83	40
84	94
85	24
86	4
87	64
88	20
89	200
90	20
91	354
92	60
93	284
94	114
95	169
96	74
97	49
98	20
99	24
100	49
101	60
102	14
103	94
104	24
105	300
106	60
107	194
108	200
109	84
110	144
111	40
112	49
113	49
114	320
115	89
116	124
117	240
118	200
119	264
120	94
121	120
122	49
123	20
124	40
125	24
126	29
127	49
128	54
129	900
130	169
131	244
132	80
133	184
134	60
135	40
136	14
137	9
138	84
139	20
140	60
141	69
142	89
143	220
144	89
145	234
146	64
147	100
148	54
149	29
150	29
151	20
152	20
153	20
154	29
155	120
156	474
157	240
158	160
159	194
160	49
161	29
162	9
163	9
164	20
165	20
166	20
167	34
168	40
169	109
170	74
171	144
172	89
173	69
174	40
175	20
176	9
177	9
178	9
179	20
180	20
181	64
182	49
183	89
184	134
185	89
186	40
187	134
188	998
189	144
190	49
191	9
192	9
193	29
194	20
195	74
196	49
197	114
198	49
199	49
200	29
201	120
202	20
203	9
204	9
205	20
206	9
207	29
208	29
209	49
210	29
211	80
212	40
213	174
214	40
215	29
216	9
217	4
218	4
219	20
220	9
221	24
222	24
223	49
224	29
225	20
226	9
227	49
228	9
229	4
230	4
231	4
232	4
233	14
234	9
235	20
236	14
237	80
238	60
239	60
240	20
241	4
246	4
247	9
248	9
249	9
250	9
251	24
252	24
253	120
254	34
255	14
256	9
262	4
263	9
264	29
265	9
266	9
267	4
277	29
278	20
279	40
280	20
285	9
286	40
287	24
288	9
293	9
294	114
295	40
296	9
301	9
302	9
303	9
304	4
310	40
311	14
313	20
324	20
325	20
326	24
327	54
328	60
329	40
330	14
341	9
342	20
343	60
344	20
345	40
346	9
347	4
356	20
357	4
359	20
360	9
361	9
367	9
368	20
369	89
370	49
371	20
372	4
382	9
383	20
384	489
385	164
386	64
387	20
400	80
401	29
402	20
403	14
414	14
415	89
416	49
417	100
418	89
419	29
420	14
421	4
431	44
432	29
433	224
434	80
435	29
436	9
458	9
459	29
460	89
461	40
462	9
473	20
474	999
475	999
476	504
477	129
478	29
479	9
490	264
491	114
492	49
493	9
504	20
505	100
506	44
507	20
508	4
