Mass Spectrum: 16.alpha.,17.alpha.-Estriol, 3TMS derivative
Formula: C27H48O3Si3
CAS: 57305-23-4
Molecular weight: 504
m/z	intensity
41	80
42	10
43	40
44	45
45	220
46	15
47	30
50	10
51	5
53	25
54	5
55	80
56	5
57	15
58	15
59	165
60	15
61	35
62	5
63	5
65	15
66	10
67	70
68	15
69	30
70	5
71	15
72	35
73	999
74	415
75	575
76	40
77	90
78	15
79	110
80	15
81	140
82	15
83	15
84	5
85	15
86	5
87	10
88	5
89	20
90	5
91	95
92	20
93	165
94	25
95	70
96	15
97	20
98	5
99	15
100	5
101	55
102	15
103	310
104	35
105	85
106	10
107	80
108	15
109	30
110	5
111	10
113	35
114	10
115	145
116	50
117	160
118	20
119	45
120	10
121	20
122	5
123	10
124	5
125	10
126	5
127	45
128	50
129	840
130	130
131	145
132	25
133	190
134	30
135	30
136	5
137	10
139	10
140	10
141	75
142	25
143	150
144	30
145	65
146	10
147	585
148	80
149	90
150	15
151	40
152	20
153	25
154	15
155	185
156	65
157	70
158	20
159	40
160	15
161	55
162	15
163	150
164	30
165	50
166	20
167	95
168	30
169	70
170	15
171	30
172	10
173	25
174	10
175	40
176	25
177	220
178	50
179	105
180	55
181	65
182	90
183	110
184	20
185	45
186	20
187	45
188	20
189	130
190	50
191	80
192	40
193	60
194	20
195	35
196	10
197	15
198	10
199	45
200	30
201	90
202	40
203	220
204	150
205	330
206	95
207	105
208	25
209	25
210	15
211	25
212	10
213	30
214	30
215	140
216	80
217	180
218	220
219	140
220	30
221	30
222	20
223	30
224	10
225	20
226	20
227	50
228	30
229	380
230	215
231	420
232	185
233	75
234	30
235	25
236	10
237	25
238	15
239	30
240	20
241	65
242	60
243	95
244	210
245	170
246	35
247	15
248	10
249	5
250	5
251	30
252	30
253	55
254	40
255	170
256	120
257	150
258	100
259	40
260	10
261	5
262	5
263	5
264	5
265	20
266	20
267	60
268	100
269	220
270	380
271	140
272	95
273	30
274	5
278	5
279	15
280	15
281	65
282	80
283	310
284	80
285	230
286	200
287	45
288	10
289	5
291	5
292	5
293	15
294	20
295	180
296	310
297	420
298	210
299	115
300	20
301	5
303	5
305	10
306	15
307	10
308	15
309	115
310	80
311	680
312	240
313	60
314	15
315	10
317	5
318	5
319	10
320	5
321	5
322	20
323	80
324	390
325	420
326	80
327	30
328	10
329	5
330	10
331	10
332	5
333	5
339	20
340	20
341	45
342	45
343	30
344	45
345	560
346	260
347	130
348	20
349	5
355	10
356	5
357	20
358	25
359	40
360	220
361	70
362	40
363	5
371	5
383	5
384	10
385	50
386	440
387	335
388	100
389	25
390	10
399	60
400	25
401	20
402	10
403	5
412	10
413	35
414	240
415	120
416	35
417	10
418	5
429	5
431	5
474	5
475	5
488	5
489	85
490	55
491	20
492	5
504	999
505	475
506	150
507	50
508	15
509	5
