Mass Spectrum: 5-(3-Chloro-2-hydroxypropyl)-1,3-dimethyl-5-phenyl-2,4,6(1H,3H,5H)-pyrimidinetrione, TMS derivative
Formula: C18H25ClN2O4Si
CAS: 57305-01-8
Molecular weight: 396
m/z	intensity
40	4
41	28
42	34
43	55
44	31
45	111
46	8
47	32
49	5
50	10
51	40
52	9
53	10
54	9
55	28
56	30
57	25
58	62
59	95
60	13
61	19
62	6
63	27
64	4
65	25
66	6
67	9
68	5
69	18
70	12
71	11
72	28
73	999
74	103
75	175
76	27
77	157
78	32
79	37
80	4
81	16
82	5
83	12
84	4
85	19
86	8
87	15
88	16
89	111
90	47
91	62
92	13
93	416
94	38
95	185
96	13
97	19
99	19
100	9
101	83
102	52
103	648
104	92
105	56
106	4
107	28
108	6
109	16
111	4
112	6
113	12
114	11
115	101
116	46
117	55
118	185
119	21
120	4
121	18
123	23
125	6
126	5
127	58
128	97
129	685
130	106
131	58
132	25
133	20
134	4
135	18
136	9
137	32
138	8
140	4
141	8
142	9
143	93
144	75
145	49
146	41
147	34
148	21
149	925
150	106
151	342
152	35
153	35
154	6
155	33
156	32
157	53
158	43
159	21
160	19
161	11
162	4
163	19
164	4
165	23
166	34
167	9
168	28
169	19
170	11
171	5
172	60
173	31
174	27
175	92
176	15
177	3
183	9
184	12
185	6
186	53
187	12
188	19
189	16
192	4
193	5
199	4
200	56
201	13
202	9
203	37
204	10
205	9
207	6
212	4
213	18
214	25
215	6
216	5
217	6
218	8
219	4
221	18
222	4
223	4
227	4
228	5
229	24
230	12
231	41
232	314
233	46
234	6
235	49
236	8
237	12
240	4
241	112
242	31
243	27
244	6
245	9
246	23
247	5
253	24
254	6
255	13
256	11
257	250
258	40
259	8
260	11
261	12
262	5
267	5
268	8
269	28
270	101
271	305
272	62
273	11
274	5
275	4
276	6
280	4
281	10
282	10
283	10
288	9
289	16
290	4
295	5
296	5
302	6
303	18
304	287
305	95
306	32
307	8
308	4
309	8
317	13
318	18
319	5
323	6
324	23
325	333
326	80
327	129
328	25
329	9
331	4
341	4
342	4
345	18
346	10
347	166
348	46
349	16
355	11
359	8
360	157
361	58
362	15
379	12
380	21
381	685
382	194
383	259
384	65
385	20
386	4
396	2
