Mass Spectrum: Androstan-17-one, 3-[(trimethylsilyl)oxy]-, O-(phenylmethyl)oxime, (3.alpha.,5.alpha.)-
Formula: C29H45NO2Si
CAS: 57305-13-2
Molecular weight: 467
m/z	intensity
41	109
42	24
43	40
44	29
45	49
47	31
50	20
51	29
52	14
53	29
54	16
55	89
56	24
57	29
58	18
59	29
61	29
63	14
65	44
66	14
67	84
68	69
69	40
70	20
72	14
73	260
74	40
75	320
76	34
77	120
78	29
79	100
80	24
81	104
82	29
84	29
89	20
91	999
92	89
93	104
94	44
95	69
96	134
97	24
101	16
103	10
104	9
105	94
106	49
107	91
108	60
109	49
110	21
111	9
115	20
116	9
117	27
118	11
119	40
120	27
121	40
122	24
123	29
124	9
125	9
129	40
130	21
131	40
132	20
133	44
134	29
135	49
136	14
142	20
143	20
144	14
145	40
146	27
147	89
148	40
149	34
155	20
157	16
158	9
159	27
160	20
161	40
162	20
163	24
171	10
173	20
174	14
197	24
199	16
207	69
208	20
209	9
213	24
214	14
215	9
221	20
222	9
255	80
256	30
257	9
268	20
270	280
271	69
272	16
281	24
341	9
344	9
345	20
346	29
347	14
360	200
361	60
362	29
363	9
376	29
377	9
452	10
467	9
