Mass Spectrum: Silane, [[(3.alpha.,5.alpha.)-androst-16-ene-3,17-diyl]bis(oxy)]bis[trimethyl-
Formula: C25H46O2Si2
CAS: 57305-20-1
Molecular weight: 434
m/z	intensity
41	300
42	29
43	149
44	69
45	500
46	40
47	189
53	89
54	20
55	369
56	29
57	80
58	49
59	240
60	49
61	200
65	40
67	300
68	49
69	100
71	49
72	89
73	999
74	480
75	999
76	249
77	249
78	49
79	349
80	49
81	349
82	29
83	49
85	49
91	400
92	69
93	380
94	60
95	249
96	29
97	29
99	29
101	89
103	49
104	20
105	349
106	89
107	320
108	69
109	100
113	29
115	60
116	20
117	149
118	49
119	189
120	49
121	120
127	100
128	40
129	329
130	80
131	289
132	69
133	169
134	29
135	100
141	60
142	60
143	169
144	49
145	229
146	49
147	229
148	29
149	49
151	40
153	20
155	209
156	149
157	149
158	29
159	140
160	40
161	189
162	29
165	60
166	40
167	229
168	160
169	720
170	120
171	100
172	20
173	69
179	40
180	40
181	300
182	389
183	189
184	49
185	49
187	49
193	49
194	29
195	100
196	49
197	80
199	49
201	29
202	49
205	20
207	80
209	40
210	29
211	29
213	29
214	20
215	29
219	40
221	100
222	29
223	29
235	49
239	400
240	80
253	49
254	40
255	29
329	700
330	200
331	60
343	49
344	40
345	20
405	69
406	49
419	999
420	400
421	149
422	49
434	949
435	380
436	149
437	49
