Mass Spectrum: Borolo[1,2-a]borine, octahydro-
Formula: C8H15B
CAS: 5731-84-0
Molecular weight: 122
m/z	intensity
27	224
28	24
29	19
30	1
33	1
34	0
35	1
36	33
37	136
38	78
39	319
40	217
41	219
42	10
43	3
44	1
45	3
46	11
47	5
48	3
49	20
50	86
51	204
52	217
53	356
54	102
55	39
56	15
57	5
58	1
59	2
60	4
61	16
62	17
63	67
64	195
65	331
66	596
67	105
68	19
69	2
70	1
71	1
73	4
74	4
75	7
76	18
77	79
78	188
79	300
80	205
81	112
82	4
83	0
84	1
85	1
87	2
88	3
89	14
90	27
91	75
92	115
93	335
94	999
95	64
96	2
97	1
102	1
103	0
104	1
105	3
106	8
107	24
108	11
109	2
110	0
117	2
118	3
119	3
120	8
121	135
122	449
123	41
124	1
