Mass Spectrum: Pregn-5-en-20-one, 3,11,17,21-tetrakis[(trimethylsilyl)oxy]-, O-methyloxime, (3.beta.,11.beta.)-
Formula: C34H67NO5Si4
CAS: 57325-94-7
Molecular weight: 681
m/z	intensity
41	100
42	35
43	170
44	40
45	175
46	5
47	35
49	5
50	10
51	10
52	10
53	25
54	35
55	240
56	45
57	55
58	35
59	120
60	20
61	55
62	5
63	5
65	15
66	15
67	110
68	35
69	90
70	30
71	30
72	65
73	999
74	650
75	999
76	80
77	100
78	20
79	170
80	40
81	270
82	45
83	50
84	100
85	50
86	15
87	15
88	15
89	240
90	25
91	235
92	50
93	280
94	50
95	150
96	25
97	45
98	20
99	30
100	50
101	155
102	30
103	990
104	140
105	420
106	90
107	250
108	40
109	45
110	15
111	20
112	15
113	50
114	140
115	165
116	135
117	225
118	120
119	320
120	70
121	100
122	15
123	25
124	10
125	20
126	20
127	45
128	120
129	600
130	200
131	320
132	190
133	210
134	45
135	35
136	15
137	15
138	10
139	15
140	30
141	115
142	115
143	470
144	210
145	330
146	135
147	465
148	100
149	85
150	15
151	25
152	15
153	35
154	85
155	25
156	155
157	270
158	150
159	120
160	35
161	25
162	15
163	45
164	10
165	45
166	35
167	90
168	350
169	315
170	170
171	230
172	320
173	200
174	50
175	30
176	10
177	20
178	25
179	85
180	55
181	170
182	145
183	190
184	100
185	140
186	70
187	75
188	45
189	25
190	15
191	130
192	35
193	140
194	90
195	240
196	120
197	150
198	115
199	80
200	40
201	35
202	330
203	90
204	130
205	75
206	55
207	225
208	90
209	200
210	85
211	315
212	100
213	65
214	130
215	50
216	60
217	50
218	30
219	75
220	80
221	140
222	90
223	110
224	45
225	130
226	105
227	35
228	35
229	25
230	55
231	50
232	65
233	120
234	80
235	100
236	115
237	220
238	55
239	30
240	20
241	15
242	40
243	50
244	460
245	210
246	490
247	215
248	100
249	140
250	80
251	285
252	80
253	35
254	15
255	15
256	30
257	35
258	140
259	70
260	175
261	70
262	55
263	55
264	35
265	15
266	15
267	40
268	20
269	25
270	20
271	25
272	25
273	50
274	35
275	70
276	530
277	120
278	60
279	15
280	10
281	70
282	30
283	30
284	20
285	25
286	20
287	35
288	45
289	35
290	120
291	25
292	15
293	10
294	15
295	30
296	20
297	20
298	20
299	45
300	30
301	50
302	30
303	10
304	10
305	5
306	20
307	10
308	15
309	15
310	20
311	35
312	20
313	40
314	20
315	25
316	35
317	15
318	25
319	10
320	5
321	15
322	25
323	15
324	25
325	80
326	35
327	40
328	15
329	5
330	5
331	5
332	5
333	5
334	5
335	5
336	10
337	20
338	20
339	75
340	40
341	155
342	60
343	25
344	10
345	5
347	5
348	5
349	10
350	20
351	15
352	20
353	10
354	15
355	35
356	20
357	15
358	5
362	5
363	20
364	15
365	10
366	30
367	15
368	10
369	15
370	5
371	5
372	5
373	5
375	5
376	5
377	5
378	10
379	15
380	170
381	55
382	15
383	10
384	5
386	5
387	5
388	5
389	5
390	5
391	10
392	5
393	5
396	15
397	5
398	10
399	5
400	5
401	20
402	10
403	15
404	15
405	15
406	10
407	5
410	5
411	15
412	15
413	10
414	10
415	30
416	25
417	15
418	10
419	5
424	15
425	5
426	5
427	5
428	10
429	35
430	45
431	55
432	20
433	15
438	5
439	20
440	15
441	10
442	25
443	15
444	10
445	5
446	15
447	5
448	10
449	5
453	10
454	45
455	25
456	20
457	10
458	10
459	5
467	5
468	10
469	25
470	260
471	130
472	55
473	15
474	5
485	5
486	40
487	15
488	10
489	5
501	10
502	10
503	10
504	5
505	10
506	10
518	5
519	10
520	70
521	40
522	20
523	5
529	20
530	20
531	10
532	40
533	20
534	15
535	5
543	5
544	10
545	5
546	15
547	5
548	5
557	5
558	20
559	40
560	345
561	200
562	85
563	35
564	10
565	5
576	15
577	5
578	30
579	10
580	5
591	15
592	10
593	5
620	5
621	15
622	15
623	5
634	5
635	5
636	10
637	5
647	10
648	30
649	70
650	999
651	585
652	320
653	120
654	50
655	20
656	10
657	5
666	20
667	15
668	10
669	5
681	90
682	65
683	35
684	15
685	5
