Mass Spectrum: Pregnane-3,17,20,21-tetrol, (3.beta.,5.alpha.,20R)-, 4TMS derivative
Formula: C33H68O4Si4
CAS: 57325-84-5
Molecular weight: 640
m/z	intensity
41	80
42	15
43	75
44	30
45	110
46	10
47	25
51	10
53	20
54	10
55	170
56	15
57	20
58	15
59	75
60	20
61	45
65	10
66	10
67	165
68	25
69	75
70	10
71	10
72	45
73	999
74	260
75	999
76	75
77	65
78	10
79	160
80	25
81	300
82	25
83	55
85	15
87	10
88	10
89	45
91	180
92	30
93	270
94	40
95	220
96	20
97	35
99	10
101	80
102	10
103	230
104	30
105	210
106	45
107	390
108	50
109	105
110	10
111	10
113	15
115	40
116	50
117	240
118	35
119	140
120	30
121	145
122	20
123	40
127	25
128	10
129	350
130	55
131	160
132	30
133	290
134	45
135	160
136	20
137	15
141	25
142	30
143	150
144	30
145	210
146	50
147	999
148	150
149	130
150	20
151	20
154	55
155	70
156	20
157	70
158	25
159	190
160	35
161	185
162	30
163	40
165	10
167	20
168	15
169	65
170	15
171	50
172	15
173	90
174	20
175	55
176	10
177	15
179	10
181	30
182	25
183	30
185	45
186	15
187	45
188	10
189	120
190	30
191	450
192	75
193	45
194	10
195	30
196	10
197	25
199	45
200	15
201	35
202	10
203	10
204	20
205	120
206	20
207	45
208	10
209	20
210	30
211	20
213	35
214	10
215	65
216	20
217	200
218	45
219	25
221	65
222	15
223	20
225	15
227	15
228	10
229	40
230	50
231	110
232	30
233	15
235	10
239	20
241	20
242	20
243	550
244	140
245	60
246	15
253	15
254	15
255	710
256	150
257	25
261	15
265	10
267	175
268	30
269	10
281	50
282	10
295	10
305	15
306	10
320	10
329	10
331	10
333	15
343	10
344	15
345	215
346	65
347	35
348	10
356	10
357	45
358	15
371	20
432	5
433	15
434	40
435	640
436	250
437	90
438	25
439	10
447	20
448	10
449	5
461	10
537	150
538	75
539	35
540	10
550	10
625	20
626	10
627	5
640	25
641	15
642	10
