Mass Spectrum: Pregn-5-en-20-one, 3,21-bis[(trimethylsilyl)oxy]-, O-(phenylmethyl)oxime, (3.beta.)-
Formula: C34H55NO3Si2
CAS: 57325-86-7
Molecular weight: 581
m/z	intensity
41	30
42	10
43	25
44	25
45	45
47	15
50	15
51	25
52	5
53	15
54	10
55	50
56	15
57	10
58	15
59	20
60	5
61	20
63	10
65	30
66	5
67	50
68	15
69	20
70	25
71	5
72	15
73	610
74	100
75	230
76	25
77	80
78	25
79	85
80	15
81	100
82	15
83	15
84	15
85	10
86	5
87	5
88	10
89	40
90	15
91	999
92	70
93	100
94	20
95	60
96	10
97	5
98	10
99	5
100	10
101	15
102	10
103	200
104	55
105	120
106	65
107	85
108	35
109	25
110	15
112	5
113	10
114	15
115	25
116	50
117	60
118	25
119	105
120	30
121	60
122	10
123	10
126	10
127	5
128	25
129	240
130	90
131	70
132	50
133	90
134	40
135	40
136	10
137	5
140	5
141	15
142	35
143	60
144	70
145	90
146	30
147	70
148	25
149	25
150	5
151	5
154	10
155	20
156	30
157	65
158	95
159	100
160	25
161	40
162	10
163	10
164	5
165	25
166	10
167	5
168	10
169	30
170	15
171	45
172	25
173	25
174	70
175	10
176	15
177	5
178	5
179	15
180	5
181	15
182	10
183	25
184	20
185	20
186	15
187	10
188	10
189	10
190	5
191	5
192	5
193	10
194	10
195	25
196	15
197	35
198	10
199	30
200	15
201	5
202	5
205	5
207	20
208	10
209	15
210	20
211	20
212	15
213	40
214	10
215	15
216	5
219	5
220	5
221	30
222	15
223	20
224	15
225	15
226	10
227	10
228	10
232	5
233	5
234	15
235	15
236	10
237	15
238	15
239	45
240	25
241	25
242	40
243	10
247	5
248	10
249	10
250	25
251	390
252	75
253	55
254	25
255	30
256	10
260	5
261	5
262	10
263	15
264	85
265	40
266	30
267	10
268	5
277	25
278	10
279	10
280	25
281	25
282	20
283	5
284	5
292	5
294	15
295	5
296	5
310	15
311	10
314	25
315	50
316	10
317	5
327	5
329	5
330	5
338	5
341	5
342	5
343	5
344	10
352	10
353	5
354	5
355	15
356	20
357	5
358	5
367	5
368	10
369	10
370	25
371	20
372	20
373	10
374	10
382	10
383	10
384	25
385	20
386	15
387	5
388	20
389	5
398	5
399	5
400	30
401	15
428	10
429	10
430	5
442	10
443	5
444	20
445	10
446	5
452	5
457	5
458	20
459	15
460	30
461	10
462	10
463	5
465	10
466	5
470	5
471	10
472	30
473	40
474	260
475	120
476	50
477	35
478	80
479	35
480	15
481	5
487	5
488	15
489	30
490	170
491	100
492	40
493	10
494	5
503	5
536	5
562	10
563	5
564	15
565	10
566	45
567	20
568	10
569	5
577	5
578	10
579	20
580	25
581	220
582	70
583	40
584	10
