Mass Spectrum: Pregnan-20-one, 3,17-bis[(trimethylsilyl)oxy]-, O-(phenylmethyl)oxime, (3.alpha.,5.alpha.)-
Formula: C34H57NO3Si2
CAS: 57325-90-3
Molecular weight: 583
m/z	intensity
41	130
42	40
43	120
44	70
45	60
47	30
50	25
51	55
52	25
53	25
54	10
55	185
56	15
57	30
58	10
59	50
60	15
61	30
63	15
65	35
66	10
67	135
68	30
69	60
70	30
71	15
72	15
73	999
74	115
75	730
76	50
77	230
78	40
79	235
80	35
81	220
82	30
83	50
84	35
85	20
86	15
87	10
89	30
90	15
91	999
92	110
93	215
94	60
95	165
96	40
97	40
98	15
99	20
100	20
101	40
103	30
104	45
105	315
106	130
107	320
108	110
109	115
110	25
111	15
113	20
114	50
115	65
116	35
117	75
118	30
119	105
120	45
121	110
122	45
123	35
124	20
125	15
127	30
128	20
129	165
130	80
131	140
132	45
133	135
134	50
135	120
136	40
137	20
138	15
141	35
142	115
143	100
144	45
145	170
146	55
147	220
148	65
149	50
150	30
151	20
153	15
154	20
155	100
156	70
157	70
158	275
159	130
160	70
161	115
162	30
163	25
164	15
165	80
166	20
167	40
168	40
169	125
170	130
171	130
172	265
173	110
174	250
175	75
176	30
177	20
178	15
179	15
180	25
181	50
182	60
183	80
184	30
185	50
186	390
187	90
188	40
189	25
190	20
191	20
192	15
193	25
194	15
195	35
196	30
197	30
198	25
199	45
200	80
201	50
202	30
203	20
204	30
205	15
209	30
210	30
211	35
212	20
213	40
214	30
215	70
216	30
217	30
221	50
222	25
223	25
225	20
227	25
228	20
229	50
230	25
231	15
233	25
235	15
238	15
239	65
240	20
241	25
242	15
244	20
246	25
247	15
248	35
249	15
251	35
253	45
254	25
255	200
256	55
257	30
263	25
264	270
265	50
266	20
267	15
268	15
271	80
272	95
273	20
276	45
277	15
279	25
280	10
284	10
294	20
295	30
296	135
297	25
305	10
312	205
313	55
329	100
330	35
331	20
332	10
334	170
335	35
336	10
343	20
344	15
345	25
346	15
347	60
348	20
350	15
358	30
359	10
360	10
361	30
362	35
363	10
370	10
372	15
384	15
385	15
386	110
387	45
388	30
389	10
393	10
402	190
403	50
404	20
405	15
419	190
420	95
421	30
422	15
430	10
432	15
433	25
434	190
435	110
436	35
437	10
439	10
440	355
441	135
442	30
446	10
447	230
448	70
449	30
450	5
460	10
461	10
462	80
463	25
464	10
474	40
475	60
476	625
477	290
478	155
479	40
480	10
490	15
491	30
492	830
493	380
494	140
495	35
496	5
568	80
569	30
570	15
583	35
584	20
585	5
