Mass Spectrum: 5-(3-Methoxyphenyl)-3-methyl-5-phenyl-2,4-imidazolidinedione, TMS derivative
Formula: C20H24N2O3Si
CAS: 57326-22-4
Molecular weight: 368
m/z	intensity
41	20
42	15
43	110
44	70
45	190
46	15
47	15
49	5
50	45
51	95
52	25
53	20
54	5
55	30
56	20
57	40
58	85
59	80
60	10
61	10
62	10
63	50
64	65
65	50
66	15
67	10
68	5
69	15
70	30
71	10
72	60
73	999
74	130
75	145
76	95
77	475
78	90
79	55
80	10
81	20
82	15
83	25
84	20
85	10
86	20
87	15
88	15
89	45
90	45
91	95
92	140
93	80
94	15
95	30
96	10
97	10
98	20
99	20
100	100
101	30
102	35
103	70
104	205
105	90
106	15
107	70
108	35
109	15
110	15
111	15
113	65
114	20
115	40
116	50
117	20
118	35
119	70
120	15
121	70
122	35
123	10
124	10
125	10
126	40
127	45
128	20
129	20
130	65
131	25
132	25
133	70
134	180
135	460
136	60
137	35
138	15
139	45
140	35
141	20
142	10
143	10
144	10
145	10
146	20
147	50
148	40
149	60
150	65
151	140
152	270
153	150
154	40
155	25
156	10
160	25
161	65
162	45
163	40
164	50
165	770
166	340
167	165
168	55
169	15
175	15
176	840
177	210
178	65
179	60
180	390
181	300
182	45
189	100
190	25
191	50
192	20
193	40
194	65
195	195
196	260
197	60
206	620
207	165
208	130
209	60
210	370
211	110
212	15
219	80
220	20
221	20
222	55
223	15
224	45
225	25
233	25
234	10
235	10
236	35
237	110
238	140
239	130
240	25
245	10
246	10
247	10
250	10
251	20
252	45
253	35
254	25
255	10
261	85
262	40
263	80
264	50
265	30
266	25
267	225
268	540
269	85
270	20
275	15
280	90
281	65
282	55
283	190
284	65
285	20
291	60
292	10
293	5
294	15
295	35
296	510
297	140
298	25
309	45
310	260
311	998
312	165
313	60
314	15
339	225
340	55
341	10
353	280
354	115
355	35
356	5
367	85
368	940
369	275
370	100
371	10
