Mass Spectrum: Pregn-4-ene-3,11-dione, 17,20,21-tris[(trimethylsilyl)oxy]-, 3-(O-methyloxime), (20R)-
Formula: C31H57NO5Si3
CAS: 57325-72-1
Molecular weight: 607
m/z	intensity
41	20
42	5
43	20
44	10
45	30
47	5
50	5
51	5
52	5
53	10
54	5
55	25
56	5
57	5
58	5
59	20
60	5
61	5
65	5
66	5
67	10
68	5
69	15
70	5
71	5
72	15
73	999
74	100
75	110
76	5
77	15
78	5
79	25
80	5
81	20
82	5
83	5
85	5
87	5
88	5
89	15
90	5
91	30
92	10
93	35
94	10
95	20
96	5
97	10
99	5
101	20
102	5
103	100
104	15
105	35
106	10
107	15
108	10
109	5
110	5
111	5
113	5
115	15
116	15
117	90
118	20
119	25
120	35
121	25
122	10
123	10
124	5
125	5
126	5
127	5
128	10
129	80
130	25
131	45
132	25
133	55
134	20
135	15
136	5
137	5
138	5
139	5
141	10
142	10
143	50
144	25
145	25
146	20
147	250
148	45
149	35
150	15
151	10
152	25
153	10
154	20
155	20
156	15
157	20
158	25
159	25
160	40
161	25
162	10
163	5
164	5
165	10
166	5
167	10
168	10
169	30
170	15
171	15
172	10
173	10
174	5
175	10
176	20
177	5
178	5
179	10
180	5
181	10
182	10
183	15
184	15
185	10
186	20
187	10
188	10
189	65
190	30
191	165
192	35
193	25
194	10
195	20
196	10
197	10
198	10
199	10
200	10
201	10
202	5
203	5
204	15
205	145
206	25
207	30
208	15
209	10
210	10
211	15
212	10
213	10
214	5
215	10
216	5
217	45
218	20
219	10
220	10
221	15
222	10
223	15
224	10
225	10
226	10
227	5
228	5
229	5
230	15
231	40
232	10
233	10
234	5
235	5
236	10
237	10
238	25
239	10
240	15
241	5
242	10
243	165
244	55
245	30
246	10
247	5
248	5
249	5
250	5
251	5
252	20
253	10
254	10
255	10
256	5
257	5
258	5
259	5
260	5
261	5
262	10
263	10
264	10
265	25
266	10
267	5
268	5
269	5
270	15
271	10
272	5
273	5
274	10
275	5
276	5
277	5
278	5
279	5
280	40
281	40
282	15
283	10
284	15
285	10
286	5
287	5
288	5
290	5
291	5
292	5
293	10
294	5
295	5
296	5
297	5
298	10
299	5
300	5
305	10
306	10
307	5
308	5
309	5
310	5
311	5
312	45
313	25
314	20
315	5
316	5
319	5
324	10
325	5
326	5
327	5
328	5
329	10
330	5
333	10
334	5
337	15
338	20
339	10
340	5
341	5
342	5
343	5
344	5
345	5
347	5
352	5
353	5
354	15
355	10
356	10
357	5
358	5
364	5
366	5
368	5
369	5
370	65
371	50
372	60
373	20
374	5
378	5
382	5
383	5
384	25
385	20
386	10
387	5
388	5
396	5
397	5
398	5
399	5
400	15
401	35
402	999
403	320
404	75
405	15
406	5
412	5
414	15
415	5
416	5
427	20
428	20
429	10
430	5
431	5
444	5
445	5
458	5
472	10
473	10
474	30
475	15
476	5
486	5
487	5
488	5
502	10
503	5
504	420
505	175
506	55
507	15
508	5
517	50
518	25
519	10
544	5
574	15
575	5
576	5
577	30
578	15
579	5
589	5
590	5
592	5
593	5
607	60
608	30
609	15
610	5
