Mass Spectrum: Pregnan-20-one, 3,11,21-tris[(trimethylsilyl)oxy]-, O-(phenylmethyl)oxime, (3.beta.,5.alpha.,11.beta.)-
Formula: C37H65NO4Si3
CAS: 57325-99-2
Molecular weight: 671
m/z	intensity
41	20
43	15
45	25
47	10
51	10
55	20
58	10
59	15
61	10
65	30
67	25
69	10
72	10
73	530
74	50
75	270
76	20
77	40
79	30
81	35
89	15
90	10
91	999
92	80
93	40
94	10
95	25
101	10
103	80
104	15
105	40
106	15
107	45
108	10
109	15
116	15
117	15
118	10
119	25
120	10
121	20
129	30
130	15
131	30
132	20
133	25
135	15
142	15
143	45
144	20
145	35
146	15
147	40
148	10
149	10
155	10
156	10
157	15
158	35
159	20
160	10
161	10
165	10
169	10
171	10
172	15
173	10
174	20
183	10
195	15
207	10
213	10
221	15
228	10
251	45
252	10
253	10
255	10
264	170
265	30
266	10
277	5
280	5
281	10
282	5
295	5
310	5
355	10
356	5
357	5
370	5
384	5
400	5
429	10
430	5
431	5
446	5
458	5
472	5
473	5
474	30
475	15
476	5
478	5
490	10
491	5
503	5
504	5
564	20
565	15
566	10
567	5
568	5
580	10
581	5
656	5
671	10
672	5
673	5
