Mass Spectrum: Silane, [[(3.beta.,20S)-pregna-5,11-diene-3,11,17,20-tetrayl]tetrakis(oxy)]tetrakis[trimethyl-
Formula: C33H64O4Si4
CAS: 57325-82-3
Molecular weight: 636
m/z	intensity
41	10
43	20
45	25
55	15
59	10
67	10
69	10
73	999
74	85
75	130
76	10
77	10
79	10
81	30
91	20
93	20
95	10
101	10
103	15
105	20
107	10
115	15
117	999
118	110
119	60
129	35
130	15
131	25
133	20
141	10
143	45
145	20
147	130
148	20
149	15
155	25
156	10
157	25
158	10
165	10
167	10
169	60
170	15
171	10
179	15
181	15
183	10
191	25
192	10
193	30
194	10
195	15
197	10
205	10
207	25
208	10
209	15
217	20
218	15
219	25
220	10
221	15
223	10
231	25
232	10
233	45
234	15
235	10
243	15
244	10
245	20
246	10
247	15
249	20
257	20
259	15
260	15
261	10
269	10
271	15
281	15
282	10
283	20
284	10
285	15
295	10
296	10
297	25
298	10
299	15
311	10
323	10
324	10
325	10
339	130
340	50
341	20
351	25
352	10
366	10
367	10
387	20
388	10
401	5
403	5
413	10
414	5
415	20
416	5
428	10
429	150
430	70
431	30
432	5
441	20
442	10
443	5
456	10
457	10
458	5
518	5
519	80
520	40
521	15
522	5
531	50
532	25
533	10
534	5
546	10
547	5
607	5
621	180
622	105
623	55
624	20
625	5
636	125
637	70
638	40
639	15
640	5
