Mass Spectrum: Glycine, N-[(3.alpha.,5.beta.,12.alpha.)-24-oxo-3,12-bis[(trimethylsilyl)oxy]cholan-24-yl]-, methyl ester
Formula: C33H61NO5Si2
CAS: 57326-17-7
Molecular weight: 607
m/z	intensity
41	103
42	20
43	65
44	235
45	101
46	10
47	62
48	10
53	25
54	15
55	225
56	28
57	31
58	15
59	57
60	12
61	55
64	10
65	12
67	155
68	33
69	81
70	20
71	17
72	25
73	999
74	95
75	870
76	67
77	88
78	15
79	150
80	25
81	261
82	38
83	60
84	25
85	20
86	11
88	23
89	37
90	160
91	168
92	35
93	230
94	60
95	181
96	30
97	30
98	12
99	35
100	15
101	40
102	15
103	60
104	21
105	220
106	56
107	221
108	61
109	115
110	56
111	20
112	97
113	30
114	25
115	35
116	23
117	95
118	55
119	150
120	67
121	120
122	50
123	36
124	15
125	12
126	15
127	20
128	38
129	107
130	38
131	300
132	56
133	123
134	93
135	83
136	17
137	16
139	13
141	25
142	41
143	96
144	117
145	158
146	53
147	206
148	56
149	71
150	15
151	15
153	12
154	13
155	50
156	45
157	72
158	48
159	120
160	46
161	97
162	33
163	42
164	12
165	21
167	17
168	22
169	40
170	25
171	67
172	95
173	135
174	51
175	160
176	51
177	22
179	13
180	10
181	25
182	30
183	36
184	22
185	56
186	30
187	55
188	31
189	36
190	13
191	15
193	30
194	12
195	25
196	30
197	31
198	30
199	77
200	40
201	61
202	27
203	38
204	16
205	11
207	85
208	21
209	40
210	20
211	96
212	40
213	85
214	45
215	50
216	45
217	17
220	10
221	20
222	10
223	15
224	13
225	22
226	18
227	55
228	52
229	51
230	20
231	12
237	10
238	10
239	25
240	18
241	25
242	23
243	20
244	11
251	15
252	25
253	75
254	88
255	850
256	205
257	30
263	15
264	13
265	76
266	25
267	22
268	15
269	13
271	10
278	22
279	15
280	10
281	50
282	40
283	58
284	40
285	12
294	21
295	30
296	43
297	35
298	13
303	30
304	15
305	15
309	15
310	17
311	17
318	21
319	13
320	15
321	20
322	30
323	17
336	13
337	75
338	55
339	25
341	22
343	11
344	22
345	90
346	30
355	16
371	12
372	30
373	20
374	15
386	25
387	10
393	18
394	13
395	20
396	16
400	10
410	10
412	57
413	21
414	12
426	12
427	145
428	75
429	25
476	10
485	35
486	25
502	141
503	61
504	25
517	100
518	50
519	15
547	25
548	10
560	15
592	125
593	65
594	25
607	10
