Mass Spectrum: Pregnan-20-one, 3,21-bis[(trimethylsilyl)oxy]-, O-(phenylmethyl)oxime, (3.alpha.,5.beta.)-
Formula: C34H57NO3Si2
CAS: 57325-89-0
Molecular weight: 583
m/z	intensity
41	69
43	49
44	34
45	60
47	24
50	29
51	74
52	20
53	29
54	24
55	89
56	29
57	20
58	20
59	40
61	40
63	14
65	34
67	109
68	40
69	44
70	29
72	20
73	820
74	109
75	769
76	60
77	254
78	44
79	200
80	29
81	200
82	29
83	49
84	20
88	14
89	60
90	14
91	999
92	89
93	189
94	44
95	169
96	29
97	20
98	14
101	29
102	14
103	200
104	49
105	240
106	160
107	214
108	144
109	89
110	24
113	14
114	20
115	24
116	54
117	49
118	24
119	74
120	40
121	74
122	20
123	34
125	14
126	20
127	14
128	29
129	109
130	89
131	64
132	60
133	74
134	34
135	84
136	20
137	20
141	14
142	94
143	54
144	69
145	100
146	49
147	129
148	54
149	64
150	20
151	14
154	14
155	94
156	49
157	44
158	229
159	100
160	49
161	104
162	29
163	29
165	44
166	14
168	14
169	20
170	24
171	54
172	40
173	80
174	134
175	44
176	20
177	14
179	14
181	14
183	20
184	20
185	24
186	29
187	54
188	34
189	20
191	14
195	29
196	14
197	20
198	14
199	29
200	40
201	40
202	24
210	9
211	14
212	20
213	29
214	24
215	60
216	24
217	14
221	49
222	14
223	20
224	14
225	20
226	40
227	34
228	44
229	49
230	14
231	14
234	20
235	14
237	14
238	14
239	20
240	24
241	54
242	40
243	29
244	40
245	14
248	14
251	349
252	64
253	34
254	24
255	74
256	24
257	54
258	9
264	200
265	54
266	20
267	20
268	109
269	24
277	14
279	20
280	9
281	44
282	120
283	209
284	69
285	14
294	14
295	20
296	20
302	9
312	34
313	14
316	14
317	20
355	9
356	40
357	20
358	480
359	149
360	34
361	9
370	9
372	29
373	29
374	69
375	20
376	9
384	14
385	9
386	44
387	20
388	14
390	14
401	9
402	40
403	24
415	9
430	9
444	14
445	9
446	49
447	24
448	9
460	14
461	9
462	60
463	20
474	20
475	34
476	249
477	320
478	124
479	40
480	69
481	29
492	260
493	100
494	40
495	9
538	4
566	9
567	4
568	20
569	9
570	4
583	189
584	80
585	34
586	9
