Mass Spectrum: Pregnan-20-one, 3,11,17,21-tetrakis[(trimethylsilyl)oxy]-, o-(phenylmethyl)oxime, (3.alpha.,5.beta.,11.beta.)-
Formula: C40H73NO5Si4
CAS: 57326-05-3
Molecular weight: 759
m/z	intensity
41	120
42	40
43	120
44	80
45	120
47	40
50	30
51	50
52	30
53	40
55	170
56	30
57	50
58	20
59	70
60	20
61	40
63	30
65	60
66	20
67	140
68	140
69	80
70	20
71	20
72	20
73	999
74	200
75	620
76	50
77	120
78	60
79	140
80	40
81	160
82	40
83	60
84	100
85	30
87	30
88	20
89	60
90	20
91	999
92	140
93	180
94	50
95	170
96	100
97	50
98	20
99	20
100	40
101	40
103	390
104	100
105	300
106	100
107	200
108	60
109	80
112	60
113	30
114	70
115	80
116	40
117	130
118	60
119	140
120	60
121	90
122	20
123	20
125	20
126	20
127	20
128	30
129	200
130	60
131	200
132	60
133	200
134	40
135	140
136	30
141	60
142	60
143	260
144	80
145	180
146	60
147	450
148	100
149	100
150	20
151	20
154	60
155	90
156	80
157	120
158	80
159	160
160	60
161	50
162	20
163	40
165	50
166	20
167	40
168	120
169	140
170	70
171	110
172	100
173	80
174	60
175	40
176	20
177	40
178	20
179	60
180	30
181	70
182	60
183	80
184	100
185	120
186	50
187	40
188	30
189	20
191	120
192	40
193	80
194	40
195	50
197	160
198	90
199	80
200	40
201	50
202	100
203	40
204	40
205	40
206	30
207	150
208	140
209	120
210	50
211	80
212	40
213	70
214	60
215	80
216	30
217	30
218	20
219	40
220	30
221	100
222	80
223	70
224	20
225	60
226	30
227	160
228	80
229	20
230	60
231	50
232	40
233	60
234	30
235	20
236	20
237	40
239	40
241	30
242	30
243	100
244	100
245	40
246	140
247	40
248	40
249	50
250	30
251	110
252	40
253	200
254	70
256	20
257	30
258	50
259	60
260	120
261	60
262	120
263	40
264	30
265	40
266	20
267	70
268	20
269	80
270	40
271	40
272	20
273	20
274	40
275	40
278	40
279	30
280	20
281	100
282	70
283	60
284	30
292	40
295	80
296	40
308	40
315	30
317	40
326	40
327	40
328	20
329	20
341	100
342	40
343	100
344	40
345	30
350	30
351	20
352	100
353	40
354	30
355	120
356	40
357	30
359	60
360	20
364	30
365	20
368	20
369	50
370	30
371	20
382	80
383	30
398	40
399	10
401	20
407	20
415	30
416	30
417	20
429	80
430	30
431	30
432	30
433	20
441	20
472	120
473	40
488	40
489	20
503	20
522	10
523	10
533	20
534	30
562	120
563	60
564	30
578	50
579	30
580	10
616	10
623	10
638	30
639	20
652	250
653	150
654	80
655	50
656	20
668	220
669	120
670	70
671	40
744	10
745	5
746	1
759	5
760	1
761	2
