Mass Spectrum: Pregnan-20-one, 3,11,21-tris[(trimethylsilyl)oxy]-, O-methyloxime, (3.beta.,5.alpha.,11.beta.)-
Formula: C31H61NO4Si3
CAS: 57325-78-7
Molecular weight: 595
m/z	intensity
41	70
42	20
43	35
44	30
45	110
47	25
53	20
54	25
55	140
56	20
57	10
58	25
59	80
60	15
61	45
65	10
67	15
68	25
69	50
70	20
71	10
72	30
73	999
74	170
75	860
76	65
77	65
78	10
79	150
80	45
81	220
82	30
83	30
84	20
85	15
87	10
88	20
89	210
90	20
91	160
92	35
93	190
94	45
95	125
96	20
97	10
98	150
99	20
100	25
101	35
102	15
103	290
104	45
105	190
106	50
107	190
108	35
109	55
110	15
111	15
112	10
113	15
114	20
115	25
116	30
117	65
118	45
119	135
120	60
121	65
122	20
123	15
124	10
125	5
126	20
127	20
128	20
129	100
130	50
131	120
132	105
133	140
134	40
135	35
139	10
141	20
142	60
143	200
144	90
145	150
146	60
147	180
148	35
149	30
150	10
151	10
154	10
155	45
156	60
157	70
158	170
159	110
160	35
161	40
162	20
163	10
165	10
167	15
168	15
169	60
170	35
171	40
172	130
173	55
174	30
175	280
176	50
177	20
179	10
180	10
181	30
182	35
183	35
184	25
185	30
186	30
187	30
188	999
189	135
190	50
191	15
192	10
193	15
194	15
195	35
196	25
197	25
198	20
199	30
200	20
201	25
202	15
203	10
204	30
205	10
207	50
208	20
209	25
210	10
211	20
212	15
213	65
214	40
215	35
216	10
219	10
221	30
222	15
223	25
224	15
225	15
226	10
227	15
228	65
229	15
235	10
236	10
237	10
238	10
239	45
240	20
241	25
242	10
249	15
251	10
252	10
253	40
254	20
255	70
256	15
260	10
265	10
266	20
267	10
274	15
275	10
276	10
277	20
278	10
280	25
281	25
282	10
290	10
294	20
295	10
303	10
312	40
313	10
315	20
318	20
329	10
330	15
331	10
339	15
344	15
355	15
356	25
357	10
367	10
368	10
370	15
371	10
384	60
385	20
386	10
402	50
403	15
404	5
415	5
416	5
428	10
429	10
443	5
444	5
445	5
446	25
447	10
448	10
457	5
458	20
459	10
460	10
461	5
472	5
473	20
474	270
475	130
476	50
477	15
478	5
490	15
491	5
492	20
493	10
494	5
505	10
506	5
534	5
550	5
564	150
565	75
566	35
567	10
568	5
580	5
581	5
595	60
596	35
597	15
598	5
