Mass Spectrum: Pregnan-20-one, 3,11,21-tris[(trimethylsilyl)oxy]-, O-methyloxime, (3.beta.,5.beta.,11.beta.)-
Formula: C31H61NO4Si3
CAS: 57325-79-8
Molecular weight: 595
m/z	intensity
41	85
42	20
43	45
44	30
45	110
47	30
53	20
54	30
55	140
56	20
57	15
58	25
59	90
60	15
61	45
65	10
66	10
67	160
68	25
69	55
70	25
71	10
72	40
73	999
74	200
75	860
76	60
77	70
78	15
79	170
80	45
81	210
82	30
83	25
84	20
85	15
87	10
88	20
89	200
90	20
91	165
92	35
93	200
94	45
95	140
96	20
97	10
98	140
99	15
100	20
101	35
102	15
103	340
104	50
105	230
106	75
107	240
108	50
109	80
110	20
111	10
112	10
113	20
114	15
115	30
116	35
117	80
118	55
119	170
120	65
121	80
122	25
123	15
126	25
127	30
128	25
129	120
130	45
131	120
132	110
133	140
134	45
135	45
136	10
141	25
142	90
143	330
144	110
145	150
146	60
147	200
148	40
149	40
153	10
154	10
155	55
156	55
157	65
158	180
159	130
160	45
161	40
162	15
163	10
165	10
166	10
167	20
168	20
169	65
170	40
171	45
172	120
173	55
174	35
175	290
176	45
177	20
178	10
179	15
180	10
181	35
182	35
183	40
184	30
185	35
186	30
187	35
188	999
189	140
190	40
191	15
192	10
193	25
194	25
195	40
196	40
197	30
198	20
199	30
200	20
201	30
202	15
203	10
204	70
205	15
206	10
207	40
208	20
209	30
210	15
211	20
212	20
213	125
214	60
215	35
216	10
219	10
220	10
221	25
222	15
223	25
224	15
225	30
226	15
227	20
228	45
229	10
233	10
234	10
235	15
236	15
237	10
238	15
239	60
240	30
241	20
242	10
249	20
250	10
251	15
252	10
253	45
254	30
255	80
256	20
260	15
261	10
262	10
264	10
265	10
266	15
267	10
274	10
275	10
276	15
277	25
278	15
280	35
281	30
282	10
290	10
294	40
295	10
303	10
312	100
313	25
315	10
318	35
319	10
329	15
330	15
331	10
344	15
345	10
356	20
357	10
367	10
368	10
370	15
371	10
376	10
384	150
385	45
386	15
400	10
402	25
403	10
415	10
416	5
428	5
442	5
443	10
444	5
445	5
446	20
447	10
448	25
449	10
450	5
457	5
458	15
459	5
460	10
461	5
472	5
473	15
474	260
475	135
476	45
477	15
478	5
479	5
490	10
491	5
492	20
493	5
494	5
505	20
506	10
507	5
534	5
548	5
549	5
550	10
551	5
563	10
564	160
565	80
566	35
567	10
568	5
580	10
581	5
595	60
596	35
597	15
598	5
