Mass Spectrum: Pregnane-11,20-dione, 3,17,21-tris[(trimethylsilyl)oxy]-, 20-[O-(phenylmethyl)oxime], (3.alpha.,5.alpha.)-
Formula: C37H63NO5Si3
CAS: 57326-02-0
Molecular weight: 685
m/z	intensity
41	60
42	10
43	70
44	15
45	70
46	5
47	25
48	5
49	5
50	15
51	25
52	10
53	15
54	5
55	140
56	10
57	15
58	10
59	25
60	10
61	20
62	5
63	5
64	5
65	40
66	5
67	110
68	20
69	70
70	5
71	10
72	17
73	999
74	160
75	450
76	35
77	100
78	20
79	10
80	20
81	130
82	15
83	20
84	70
85	10
86	5
87	5
88	5
89	25
90	10
91	999
92	130
93	130
94	25
95	10
96	15
97	20
98	5
99	10
100	15
101	20
102	5
103	320
104	65
105	220
106	70
107	170
108	50
109	80
110	10
111	10
112	50
113	15
114	40
115	35
116	20
117	40
118	20
119	90
120	25
121	80
122	20
123	20
124	5
125	5
126	10
127	15
128	20
129	130
130	40
131	90
132	40
133	110
134	40
135	60
136	15
137	10
138	5
139	10
140	10
141	25
142	20
143	90
144	25
145	10
146	20
147	370
148	70
149	70
150	10
151	10
152	10
153	10
154	30
155	65
156	25
157	35
158	25
159	70
160	20
161	80
162	20
163	15
164	5
165	25
166	15
167	20
168	70
169	80
170	30
171	25
172	60
173	70
174	15
175	50
176	5
177	10
178	5
179	20
180	15
181	50
182	90
183	70
184	100
185	15
186	20
187	25
188	20
189	10
190	10
191	20
192	10
193	25
194	25
195	30
196	20
197	20
198	30
199	25
200	15
201	20
202	30
203	15
204	20
205	10
206	10
207	25
208	20
209	25
210	10
211	30
212	10
213	20
214	15
215	20
216	15
217	25
218	10
219	10
220	10
221	20
222	15
223	20
224	15
225	25
226	10
227	30
228	15
229	15
230	25
231	15
232	15
233	15
234	10
235	20
236	10
237	20
238	10
239	30
240	10
241	50
242	20
243	140
244	60
245	25
246	35
247	15
248	15
249	15
250	15
251	15
252	10
253	15
254	5
255	10
256	10
257	30
258	35
259	20
260	35
261	15
262	15
263	10
264	10
265	15
266	10
267	30
268	15
269	70
270	15
271	5
272	5
273	5
274	80
275	25
276	15
277	5
278	5
279	5
280	5
281	10
282	5
283	5
284	15
285	25
286	15
287	5
288	5
289	5
290	10
291	5
292	5
293	5
294	5
295	5
296	10
297	5
298	5
299	5
300	5
301	5
302	5
303	5
304	5
305	5
306	5
307	5
308	10
309	5
310	5
311	5
312	10
313	5
314	5
315	10
316	5
317	5
318	5
319	5
320	5
321	5
322	5
323	5
324	10
325	5
326	5
327	5
328	5
329	5
331	5
332	5
333	5
334	5
335	5
336	5
337	5
338	5
339	10
340	5
341	5
342	30
343	20
344	10
345	5
346	5
347	5
348	5
350	5
351	5
352	25
353	10
354	5
355	5
356	5
357	15
358	10
359	15
360	10
361	10
362	5
363	5
364	25
365	10
366	5
367	5
368	5
369	5
370	10
371	5
372	5
373	5
374	5
375	50
376	15
377	5
378	5
379	5
380	5
381	5
382	5
383	5
384	15
385	10
386	5
387	5
388	5
391	5
392	5
393	10
394	5
395	5
396	5
397	5
398	20
399	10
400	3
401	5
402	5
403	5
404	5
405	20
406	10
407	5
414	10
415	5
416	5
417	5
418	5
420	5
421	5
432	20
433	20
434	10
435	5
436	5
446	5
447	40
448	25
449	40
450	20
451	5
456	10
457	10
458	10
459	45
460	25
461	10
462	5
465	10
466	5
472	5
474	25
475	10
476	10
477	5
487	40
488	200
489	90
490	40
491	10
504	50
505	25
506	15
507	10
542	10
543	5
546	5
547	10
548	10
549	10
550	5
560	5
561	5
562	5
563	5
564	30
565	15
566	10
567	5
576	10
577	25
578	210
579	110
580	60
581	25
582	40
583	25
584	10
593	10
594	260
595	140
596	70
597	30
670	10
685	15
686	10
687	5
