Mass Spectrum: Pregn-4-en-3-one, 11,17,20,21-tetrakis[(trimethylsilyl)oxy]-, O-methyloxime, (11.beta.,20S)-
Formula: C34H67NO5Si4
CAS: 57325-93-6
Molecular weight: 681
m/z	intensity
41	111
42	35
43	85
44	75
45	147
46	10
47	50
48	11
49	11
50	15
51	16
52	15
53	31
54	20
55	120
56	30
57	45
58	25
59	115
60	20
61	30
63	10
65	16
66	21
67	65
68	55
69	47
70	20
71	25
72	50
73	999
74	380
75	620
76	45
77	80
78	20
79	101
80	35
81	97
82	45
83	30
84	16
85	25
86	10
87	15
88	16
89	65
90	10
91	115
92	31
93	130
94	40
95	65
96	40
97	35
98	10
99	20
100	15
101	77
102	15
103	315
104	60
105	145
106	45
107	67
108	32
109	35
110	21
111	15
112	11
113	20
115	55
116	45
117	292
118	75
119	115
120	70
121	50
122	36
123	40
124	16
125	16
126	21
127	25
128	30
129	390
130	90
131	165
132	60
133	195
134	55
135	45
136	25
137	35
138	15
139	16
140	10
141	47
142	45
143	305
144	85
145	105
146	60
147	950
148	160
149	125
150	50
151	55
152	57
153	45
154	120
155	110
156	57
157	80
158	51
159	47
160	40
161	35
162	20
163	25
164	20
165	30
166	21
167	37
168	51
169	140
170	60
171	65
172	60
173	30
174	17
175	30
176	47
177	35
178	20
179	37
180	21
181	65
182	60
183	55
184	35
185	30
186	25
187	20
188	17
189	91
190	75
191	355
192	75
193	90
194	45
195	110
196	50
197	47
198	30
199	21
200	15
201	16
202	20
203	16
204	37
205	175
206	50
207	235
208	75
209	70
210	46
211	30
212	21
213	20
214	12
215	30
216	20
217	140
218	37
219	47
220	21
221	141
222	75
223	55
224	51
225	45
226	31
227	15
228	10
229	21
230	47
231	71
232	36
233	60
234	30
235	35
236	31
237	85
238	60
239	25
240	41
241	15
242	35
243	600
244	180
245	101
246	40
247	65
248	31
249	70
250	50
251	25
252	15
253	10
254	25
255	16
256	41
257	35
258	35
259	20
260	15
261	25
262	25
263	20
264	161
265	185
266	115
267	37
268	20
269	15
270	45
271	30
272	10
273	10
275	15
276	20
277	15
278	16
279	15
280	16
281	120
282	57
283	41
284	16
285	16
286	10
289	10
290	21
291	20
292	25
293	20
294	25
295	50
296	999
297	220
298	41
299	15
305	21
306	21
307	15
308	36
309	15
310	10
312	11
313	17
314	10
320	10
321	10
322	61
323	25
324	10
325	10
326	10
333	25
334	10
339	16
340	17
341	21
348	10
354	45
355	60
356	45
357	17
366	15
367	10
368	11
369	15
370	10
380	15
384	25
385	16
386	246
387	105
388	65
396	11
398	90
399	30
400	11
411	20
412	25
413	12
429	25
430	10
446	35
447	11
456	11
458	25
459	11
474	10
475	25
476	315
477	121
478	50
479	15
486	15
487	15
488	230
489	90
490	35
491	10
501	50
502	25
503	17
578	75
579	40
580	20
591	30
592	15
593	10
651	15
652	11
653	5
676	5
681	30
682	15
683	10
