Mass Spectrum: Pregn-4-en-3-one, 17,20,21-tris[(trimethylsilyl)oxy]-, O-(phenylmethyl)oxime, (20R)-
Formula: C37H63NO4Si3
CAS: 57325-95-8
Molecular weight: 669
m/z	intensity
41	40
42	10
43	35
44	25
45	60
47	10
50	25
51	50
52	15
53	20
54	10
55	50
56	15
57	10
58	10
59	45
61	10
63	10
65	30
66	10
67	40
68	10
69	25
70	10
72	20
73	999
74	140
75	230
76	20
77	140
78	25
79	90
80	20
81	80
82	20
83	15
85	10
88	10
89	35
90	10
91	995
92	100
93	100
94	25
95	50
96	20
97	10
101	30
102	10
103	190
104	25
105	195
106	95
107	100
108	45
109	25
110	15
113	10
115	30
116	25
117	150
118	25
119	70
120	60
121	40
122	55
123	40
124	15
127	15
128	15
129	260
130	55
131	130
132	40
133	120
134	45
135	40
136	25
137	10
138	10
139	10
141	25
142	15
143	150
144	50
145	110
146	60
147	520
148	120
149	70
150	15
151	10
153	10
154	45
155	65
156	30
157	60
158	35
159	40
160	30
161	25
162	10
163	10
165	10
167	15
168	15
169	60
170	30
171	40
172	40
173	25
174	25
175	20
176	10
177	10
178	10
179	15
180	10
181	30
182	15
183	45
184	25
185	25
186	25
187	15
188	15
189	105
190	40
191	500
192	80
193	65
194	25
195	30
196	25
197	30
198	25
199	25
200	15
201	20
202	10
203	10
204	25
205	110
206	30
207	105
208	30
209	30
210	30
211	40
212	30
213	20
214	15
215	25
216	10
217	120
218	30
219	20
220	10
221	60
222	30
223	25
224	45
225	40
226	40
227	25
228	55
229	35
230	35
231	80
232	20
233	15
234	15
235	15
236	15
237	20
238	25
239	40
240	25
241	20
242	35
243	405
244	110
245	60
246	15
247	10
248	10
249	25
250	30
251	70
252	35
253	15
254	10
263	15
264	20
265	25
266	160
267	300
268	165
269	30
270	15
277	10
278	20
279	20
280	15
281	25
282	15
283	25
284	25
285	10
292	10
293	10
294	10
295	15
303	10
305	15
308	10
329	10
332	10
333	20
334	20
335	10
336	30
337	15
341	10
342	15
348	10
355	25
356	45
357	45
358	200
359	60
360	20
368	10
369	15
370	60
371	25
372	25
373	45
374	320
375	110
376	40
377	10
382	10
384	15
385	10
386	45
387	20
399	25
400	60
401	15
431	10
458	15
459	15
460	60
461	40
462	50
463	90
464	999
465	380
466	100
467	25
468	10
473	10
474	10
476	40
477	15
489	20
490	20
563	55
564	45
565	45
566	270
567	110
568	55
569	15
579	30
580	20
581	5
635	5
654	5
668	10
669	40
670	25
671	15
672	5
