Mass Spectrum: Silane, [[(3.beta.,5.alpha.,11.beta.,20R)-pregnane-3,11,20,21-tetrayl]tetrakis(oxy)]tetrakis[trimethyl-
Formula: C33H68O4Si4
CAS: 57325-85-6
Molecular weight: 640
m/z	intensity
41	64
42	9
43	40
44	24
45	100
46	9
47	34
49	4
50	4
51	9
52	4
53	14
54	9
55	74
56	4
57	20
58	20
59	64
60	14
61	49
62	4
63	4
65	9
66	4
67	140
68	9
69	44
70	9
71	9
72	34
73	999
74	229
75	999
76	84
77	74
78	20
79	140
80	34
81	240
82	24
83	44
84	4
85	14
87	14
88	9
89	40
90	4
91	169
92	29
93	209
94	34
95	189
96	20
97	9
99	14
101	49
102	9
103	340
104	40
105	169
106	29
107	209
108	29
109	80
110	9
111	4
113	24
114	9
115	29
116	20
117	169
118	24
119	160
120	40
121	124
122	9
123	9
124	4
125	4
126	4
127	24
128	9
129	999
130	149
131	209
132	24
133	260
134	49
135	129
136	14
137	9
138	4
139	4
140	4
141	24
142	64
143	320
144	34
145	149
146	40
147	849
148	100
149	129
150	20
151	9
153	9
154	4
155	84
156	20
157	120
158	29
159	284
160	29
161	84
162	9
163	24
164	4
165	14
166	4
167	14
168	14
169	94
170	14
171	100
172	34
173	120
174	9
175	44
176	9
177	9
178	4
179	20
180	4
181	40
182	34
183	49
184	9
185	109
186	24
187	29
188	9
189	14
190	4
191	64
192	14
193	24
194	14
195	54
196	14
197	74
198	20
199	40
200	14
201	40
202	4
203	9
204	14
205	44
206	20
207	149
208	20
209	40
210	14
211	49
212	9
213	64
214	14
215	80
216	24
217	20
218	9
219	20
220	4
221	49
222	9
223	24
224	9
225	60
226	9
227	34
228	14
229	9
230	4
231	14
233	14
234	4
235	24
236	9
237	9
238	9
239	40
240	4
241	44
242	9
243	4
244	4
245	4
247	14
248	4
249	29
250	9
251	9
252	9
253	60
254	9
255	40
256	9
257	9
258	4
259	4
260	4
261	14
262	4
263	14
264	4
265	14
266	20
267	680
268	249
269	40
270	4
271	9
272	4
273	4
274	4
275	4
276	4
277	9
278	4
279	9
280	4
281	109
282	24
283	14
284	4
285	24
286	4
287	9
289	4
291	9
295	4
297	4
298	4
299	4
301	4
303	20
304	9
305	4
315	4
317	4
325	4
327	4
329	14
330	9
331	9
332	4
333	4
335	4
339	4
340	4
341	9
342	4
343	14
344	4
345	4
355	34
356	9
357	999
358	289
359	69
360	20
369	4
370	4
371	9
372	9
393	4
401	4
429	4
431	4
445	20
446	14
447	260
448	44
449	34
450	4
521	4
522	4
535	4
536	9
537	140
538	49
539	20
540	14
541	4
625	2
626	1
