Mass Spectrum: Pregnane-11,20-dione, 3,17,21-tris[(trimethylsilyl)oxy]-, 20-(O-methyloxime), (3.alpha.,5.alpha.)-
Formula: C31H59NO5Si3
CAS: 57325-75-4
Molecular weight: 609
m/z	intensity
41	50
42	15
43	65
44	15
45	70
46	5
47	30
48	5
49	5
50	10
51	5
52	5
53	20
54	20
55	125
56	15
57	20
58	15
59	60
60	15
61	30
62	5
63	5
65	10
66	5
67	100
68	30
69	55
70	10
71	10
72	30
73	999
74	200
75	690
76	50
77	65
78	15
79	110
80	25
81	155
82	25
83	30
84	55
85	20
86	10
87	10
88	10
89	120
90	15
91	145
92	25
93	160
94	40
95	130
96	20
97	20
98	15
99	20
100	25
101	45
102	15
103	350
104	45
105	170
106	35
107	170
108	35
109	75
110	15
111	15
112	10
113	25
114	65
115	50
116	35
117	60
118	35
119	110
120	30
121	85
122	20
123	25
124	5
125	10
126	10
127	25
128	40
129	190
130	60
131	100
132	45
133	120
134	30
135	40
136	15
137	15
138	5
139	5
140	15
141	40
142	35
143	120
144	40
145	85
146	30
147	410
148	70
149	60
150	10
151	15
152	10
153	15
154	40
155	60
156	50
157	50
158	40
159	80
160	30
161	85
162	20
163	35
164	10
165	25
166	10
167	30
168	175
169	125
170	50
171	35
172	90
173	85
174	30
175	65
176	15
177	15
178	10
179	25
180	20
181	40
182	140
183	75
184	30
185	30
186	25
187	40
188	30
189	15
190	10
191	30
192	15
193	45
194	35
195	55
196	30
197	30
198	155
199	50
200	35
201	25
202	80
203	35
204	45
205	25
206	15
207	40
208	35
209	30
210	25
211	40
212	20
213	25
214	40
215	30
216	40
217	35
218	20
219	30
220	15
221	30
222	25
223	20
224	20
225	30
226	15
227	40
228	20
229	25
230	30
231	35
232	50
233	60
234	25
235	25
236	15
237	25
238	10
239	25
240	15
241	65
242	35
243	60
244	110
245	50
246	120
247	45
248	20
249	20
250	15
251	30
252	15
253	20
254	10
255	10
256	20
257	50
258	100
259	50
260	50
261	20
262	10
263	20
264	10
265	25
266	15
267	35
268	15
269	60
270	30
271	20
272	10
273	10
274	10
275	15
276	80
277	30
278	15
279	5
280	15
281	15
282	20
283	10
284	30
285	20
286	25
287	15
288	75
289	35
290	25
291	10
292	5
293	5
294	5
295	5
296	5
297	15
298	10
299	15
300	5
301	20
302	15
303	10
304	5
305	5
306	5
307	5
308	30
309	10
310	5
311	15
312	25
313	15
314	5
315	20
316	5
317	10
318	5
319	5
320	5
321	5
322	5
323	5
324	5
325	20
326	20
327	10
328	5
329	5
330	5
331	10
332	5
333	15
334	10
335	5
336	5
337	5
338	5
339	30
340	45
341	20
342	10
343	40
344	15
345	10
346	5
347	5
348	5
349	5
350	5
351	5
352	5
353	5
354	10
355	5
356	5
357	20
358	10
359	25
360	10
361	15
362	10
363	5
364	5
365	5
366	5
367	5
368	5
369	5
370	15
371	5
372	5
373	5
374	10
375	10
376	5
377	5
378	5
379	5
380	10
381	5
382	5
384	10
385	10
386	5
387	5
389	5
390	5
391	10
392	10
393	15
394	5
395	5
396	5
397	5
398	90
399	35
400	15
401	10
402	5
403	40
404	20
405	70
406	25
407	15
408	10
411	5
413	5
414	10
415	10
416	20
417	10
418	5
419	10
420	10
421	5
428	5
429	35
430	25
431	15
432	10
433	20
434	20
435	10
436	5
442	10
443	25
444	15
445	10
446	10
447	50
448	45
449	95
450	40
451	10
452	5
456	5
457	10
458	15
459	10
460	35
461	20
462	10
463	5
466	5
467	5
470	15
471	10
472	10
473	5
474	15
475	10
476	5
477	5
486	15
487	30
488	735
489	300
490	125
491	35
492	10
504	45
505	20
506	160
507	70
508	30
509	10
518	5
519	30
520	20
521	20
522	10
523	5
533	5
534	5
536	5
542	5
544	5
545	20
546	45
547	25
548	20
549	5
560	50
561	35
562	25
563	10
564	5
576	25
577	50
578	999
579	470
580	200
581	65
582	15
583	5
591	5
592	5
593	5
594	40
595	20
596	10
597	5
609	275
610	135
611	65
612	20
613	5
