Mass Spectrum: Pregnane-11,20-dione, 3,17,21-tris[(trimethylsilyl)oxy]-, 20-[O-(phenylmethyl)oxime], (3.alpha.,5.beta.)-
Formula: C37H63NO5Si3
CAS: 57325-96-9
Molecular weight: 685
m/z	intensity
41	70
42	20
43	65
44	30
45	75
47	30
50	20
51	30
52	15
53	20
54	10
55	120
56	20
57	30
58	10
59	30
60	10
61	25
63	20
65	40
66	15
67	90
68	55
69	55
70	15
71	10
72	15
73	999
74	130
75	345
76	35
77	100
78	35
79	90
80	20
81	110
82	20
83	30
84	65
85	20
86	10
87	10
89	30
90	20
91	999
92	105
93	130
94	35
95	100
96	45
97	30
98	15
99	20
100	25
101	21
103	310
104	50
105	175
106	40
107	145
108	30
109	60
110	15
111	20
112	55
113	20
114	45
115	40
116	25
117	50
118	20
119	80
120	30
121	70
122	20
123	30
124	10
125	10
126	15
127	20
128	20
129	100
130	40
131	85
132	40
133	105
134	30
135	80
136	25
137	15
140	15
141	30
142	25
143	90
144	35
145	80
146	30
147	280
148	60
149	70
150	20
151	15
153	15
154	35
155	50
156	30
157	50
158	40
159	60
160	30
161	75
162	20
163	30
165	40
166	20
167	25
168	60
169	80
170	40
171	50
172	55
173	55
174	30
175	100
176	20
177	30
178	10
179	25
180	20
181	35
182	60
183	50
184	100
185	50
186	20
187	40
188	30
189	20
190	10
191	50
192	20
193	40
194	20
195	50
196	30
197	60
198	40
199	30
200	20
201	30
202	35
203	30
204	30
205	20
206	10
207	110
209	50
210	20
211	40
212	20
213	40
214	25
215	35
216	20
217	20
219	20
220	20
221	90
222	30
223	35
224	15
225	40
226	20
227	50
228	20
229	30
230	40
231	25
232	25
233	30
234	20
235	30
236	15
237	15
238	10
239	30
240	10
241	50
242	20
243	150
244	60
245	30
246	45
247	20
248	20
249	30
250	15
251	30
252	15
253	15
256	20
257	40
258	60
259	35
260	30
261	25
262	20
263	15
264	10
265	30
266	10
267	50
268	20
269	70
270	25
271	20
272	10
273	10
274	80
275	30
276	20
277	10
279	10
280	10
281	85
282	30
283	20
284	15
285	50
286	20
287	10
294	20
295	30
296	20
297	10
301	10
303	10
304	15
306	10
308	20
312	20
313	15
314	10
315	30
316	10
317	10
324	20
325	20
327	10
331	15
334	10
339	10
340	10
341	25
342	60
343	50
344	20
345	10
352	30
353	10
355	50
356	20
357	50
358	25
359	40
360	15
361	10
364	25
365	10
366	20
369	20
370	15
375	60
376	25
384	20
385	10
398	65
399	20
403	10
405	10
414	30
415	15
429	30
430	10
431	10
432	10
433	10
447	25
448	10
449	15
456	20
457	10
458	10
459	40
460	25
461	10
474	20
486	10
487	20
488	135
489	60
490	30
491	10
503	10
504	50
505	30
506	20
507	10
542	15
560	10
561	10
562	10
564	20
565	10
566	10
576	20
577	40
578	170
579	105
580	50
581	30
582	50
583	25
584	15
594	180
595	100
596	55
597	25
670	5
671	2
685	5
686	2
687	0
