Mass Spectrum: Pregnan-20-one, 3,11,17-tris[(trimethylsilyl)oxy]-, O-(phenylmethyl)oxime, (3.alpha.,5.beta.,11.beta.)-
Formula: C37H65NO4Si3
CAS: 57326-01-9
Molecular weight: 671
m/z	intensity
41	65
42	35
43	70
44	40
45	45
46	5
47	15
49	5
50	15
51	30
52	10
53	15
54	5
55	150
56	10
57	15
58	10
59	40
60	15
61	25
62	5
63	10
65	30
66	5
67	90
68	15
69	50
70	20
71	10
72	20
73	999
74	140
75	500
76	35
77	110
78	25
79	135
80	20
81	150
82	20
83	40
84	25
85	10
86	15
87	5
88	5
89	20
90	10
91	999
92	95
93	150
94	35
95	140
96	25
97	20
98	10
99	10
100	10
101	30
102	5
103	55
104	50
105	210
106	70
107	180
108	60
109	55
110	15
111	10
112	5
113	15
114	85
115	35
116	35
117	80
118	35
119	110
120	35
121	70
122	15
123	15
124	10
125	5
126	5
127	20
128	15
129	130
130	60
131	150
132	45
133	95
134	30
135	55
136	15
137	10
138	5
139	5
140	5
141	35
142	100
143	160
144	55
145	155
146	40
147	140
148	30
149	45
150	20
151	10
152	5
153	10
154	20
155	60
156	105
157	100
158	240
159	135
160	60
161	40
162	15
163	10
164	5
165	45
166	10
167	25
168	75
169	115
170	105
171	115
172	310
173	80
174	160
175	55
176	20
177	10
178	5
179	20
180	15
181	40
182	60
183	60
184	60
185	130
186	235
187	55
188	25
189	10
190	10
191	25
192	15
193	35
194	20
195	50
196	30
197	40
198	25
199	45
200	80
201	35
202	35
203	10
204	5
205	10
206	5
207	30
208	20
209	40
210	25
211	50
212	25
213	45
214	25
215	40
216	20
217	10
218	10
219	20
220	10
221	25
222	20
223	25
224	20
225	55
226	25
227	250
228	95
229	20
230	15
231	15
232	15
233	25
234	15
235	20
236	15
237	20
238	15
239	25
240	20
241	20
242	20
243	25
244	10
245	10
246	30
247	20
248	45
249	30
250	15
251	65
252	30
253	80
254	35
255	15
256	20
257	10
258	10
259	10
260	10
261	10
262	10
263	35
264	390
265	30
266	30
267	10
268	15
269	25
270	20
271	15
272	5
273	5
274	5
275	10
276	45
277	25
278	15
279	5
280	5
281	5
282	10
283	20
284	10
285	10
286	10
287	10
288	15
289	15
290	10
291	5
292	20
293	15
294	95
295	25
296	5
297	5
298	5
299	10
300	5
301	10
303	10
304	15
310	200
311	50
312	10
313	10
315	25
316	10
317	40
318	15
326	40
327	25
328	10
329	10
332	10
341	10
342	10
343	35
344	15
345	10
348	20
356	15
358	10
359	20
360	15
382	15
383	10
384	70
385	25
386	10
388	10
394	10
400	70
401	25
402	15
407	15
416	15
417	15
418	10
422	10
432	10
433	10
438	10
446	10
448	10
454	10
461	25
462	10
473	10
474	65
475	30
476	25
477	10
490	85
491	45
492	20
506	70
507	35
508	15
521	10
522	25
523	15
524	10
528	75
529	30
530	15
535	45
536	25
537	10
550	55
551	25
552	10
563	10
564	130
565	75
566	55
567	20
580	220
581	105
582	55
583	20
597	5
656	30
657	15
658	5
671	15
672	10
673	5
