Mass Spectrum: 5-(4-Methoxyphenyl)-3-methyl-5-phenylimidazolidine-2,4-dione, TMS derivative
Formula: C20H24N2O3Si
CAS: 57346-57-3
Molecular weight: 368
m/z	intensity
41	15
42	10
43	120
44	40
45	110
46	10
47	10
49	5
50	30
51	65
52	35
53	20
54	5
55	15
56	20
57	35
58	50
59	35
60	5
61	5
62	10
63	55
64	60
65	30
66	5
67	5
69	10
70	25
71	10
72	55
73	999
74	100
75	100
76	65
77	255
78	45
79	55
80	5
81	10
82	5
83	10
84	10
85	5
86	10
87	10
88	10
89	20
90	25
91	55
92	75
93	45
94	5
95	20
96	10
97	5
98	25
99	10
100	55
101	20
102	20
103	55
104	130
105	75
106	15
107	55
108	20
109	10
110	10
111	10
113	30
114	10
115	35
116	55
117	30
118	30
119	30
120	15
121	45
122	25
123	10
124	10
125	10
126	35
127	65
128	20
129	20
130	35
131	15
132	10
133	85
134	355
135	220
136	30
137	10
138	10
139	40
140	40
141	30
146	10
147	55
148	25
149	35
150	40
151	105
152	305
153	250
154	35
155	5
159	5
160	10
161	20
162	90
163	45
164	45
165	605
166	130
167	140
168	55
169	25
176	90
177	60
178	40
179	40
180	160
181	290
182	60
183	10
189	15
190	10
191	55
192	15
193	15
194	30
195	150
196	970
197	120
198	15
206	460
207	150
208	95
209	30
210	260
211	120
212	20
219	430
220	50
221	5
222	20
223	10
224	30
225	5
233	15
234	15
235	10
236	15
237	40
238	145
239	40
251	10
252	40
253	50
254	15
255	5
259	5
261	15
263	50
264	20
265	20
266	30
267	265
268	215
269	70
270	10
280	20
281	15
282	45
283	410
284	70
285	35
291	100
292	40
293	10
294	5
295	15
296	580
297	70
298	15
299	5
309	20
310	55
311	320
312	90
313	20
314	5
325	15
339	165
340	65
341	10
353	175
354	40
355	20
367	40
368	998
369	185
370	75
371	15
