Mass Spectrum: Decanoic acid, 2,4,6,8-tetramethyl-, methyl ester
Formula: C15H30O2
CAS: 57345-34-3
Molecular weight: 242
m/z	intensity
15	8
17	7
18	28
27	17
28	8
29	55
39	24
40	6
41	132
42	32
43	103
44	7
45	7
53	13
54	4
55	132
56	37
57	264
58	13
59	71
67	18
68	7
69	216
70	38
71	113
72	8
73	44
74	8
79	5
81	12
82	7
83	103
84	12
85	104
86	8
87	33
88	999
89	49
90	7
95	15
97	65
98	9
99	54
100	6
101	450
102	66
103	8
109	12
111	92
112	12
113	13
115	6
121	5
123	26
125	21
127	5
129	60
130	5
137	10
139	32
140	13
143	20
163	6
171	23
177	5
181	16
199	15
211	18
242	74
243	16
