Mass Spectrum: 6-Ethoxycarbonyl-7-oxo-1,7-dihydro-[1,2,4]triazolo(4,3-b)[1,2,4]-triazine
Formula: C7H7N5O3
CAS: 57351-78-7
Molecular weight: 209
m/z	intensity
41	201
42	333
43	277
53	169
54	371
55	177
57	290
68	108
69	198
110	999
111	70
137	130
164	160
181	119
209	391
