Mass Spectrum: 6-Methoxycarbonyl-7-oxo-4,7-dihydro-[1,2,4]triazolo(3,4-c)[1,2,4]triazine
Formula: C6H5N5O3
CAS: 57351-62-9
Molecular weight: 195
m/z	intensity
40	118
41	277
42	469
43	118
44	88
53	555
54	841
55	129
56	69
67	120
68	171
69	580
109	180
110	999
111	70
123	79
136	49
137	218
164	190
195	280
