Mass Spectrum: 5-Cyano-1,2,3-thiadiazole
Formula: C3HN3S
CAS: 57352-02-0
Molecular weight: 111
m/z	intensity
38	80
39	20
44	40
45	90
46	50
50	30
51	80
56	140
57	160
70	50
82	300
83	999
84	50
85	50
111	40
