Mass Spectrum: 6-Ethoxycarbonyl-7-oxo-4,7-dihydro-[1,2,4]triazolo(3,4-c)[1,2,4]triazine
Formula: C7H7N5O3
CAS: 57351-64-1
Molecular weight: 209
m/z	intensity
40	152
41	257
42	550
43	187
44	251
53	530
54	781
55	221
67	90
68	210
69	521
109	161
110	999
111	99
123	59
136	69
137	168
164	141
181	89
209	169
