Mass Spectrum: 1,3-Dioxolane-2-acetic acid, 2-methyl-
Formula: C6H10O4
CAS: 5735-97-7
Molecular weight: 146
m/z	intensity
25	2
26	20
27	75
28	37
29	108
30	10
31	62
33	14
36	2
37	8
38	16
39	127
40	57
41	152
42	161
43	853
44	101
45	238
46	7
47	2
49	3
50	2
51	1
52	2
53	6
54	2
55	13
56	15
57	30
58	162
59	78
60	19
61	16
66	4
67	8
68	45
69	60
70	10
71	17
72	17
73	7
74	17
75	3
76	2
77	3
78	2
79	3
80	2
81	4
82	2
83	5
84	21
85	67
86	52
87	999
88	96
89	305
90	17
91	5
93	3
97	2
98	28
99	20
100	2
101	3
102	4
103	24
104	2
105	2
106	2
107	2
113	7
115	3
116	27
117	2
127	5
129	4
131	358
132	38
133	7
147	6
