Mass Spectrum: 2-Methylaminomethyl-1,3-dioxolane
Formula: C5H11NO2
CAS: 57366-77-5
Molecular weight: 117
m/z	intensity
14	3
15	31
17	1
18	10
19	3
26	5
27	36
28	68
29	38
30	22
31	12
39	1
40	5
41	15
42	73
43	49
44	999
45	266
46	6
47	2
52	1
54	2
55	2
56	35
57	61
58	21
59	2
70	3
71	2
72	15
73	635
74	171
75	14
86	22
87	9
88	3
99	2
116	4
117	80
118	19
119	1
