Mass Spectrum: 7,8-Epoxy-trans-syn-cis-tricyclo[7.3.0.0(2,6)]dodecane, (+-) (7S,8R)-
Formula: C12H18O
CAS: 57366-09-3
Molecular weight: 178
m/z	intensity
38	10
39	310
40	60
41	560
42	40
43	90
44	10
50	20
51	80
52	50
53	210
54	80
55	250
56	10
57	50
64	20
65	140
66	410
67	999
68	140
69	100
70	60
71	30
77	260
78	90
79	850
80	320
81	730
82	310
83	130
84	40
91	480
92	200
93	460
94	210
95	290
96	160
97	590
98	80
99	10
103	20
104	60
105	160
106	80
107	250
108	130
109	100
110	430
111	50
117	40
118	20
119	250
120	60
121	220
122	60
123	190
124	50
125	30
128	10
129	20
130	10
131	280
132	130
133	170
134	360
135	270
136	80
137	110
145	50
146	20
147	90
148	40
149	360
150	160
151	20
159	30
160	80
161	20
162	40
163	50
177	80
178	90
179	15
