Mass Spectrum: 4-Hexyloxyacetophenone
Formula: C14H20O2
CAS: 5736-95-8
Molecular weight: 220
m/z	intensity
14	10
15	82
16	4
18	4
26	32
27	415
28	89
29	530
30	17
31	5
37	6
38	31
39	264
40	34
41	452
42	88
43	999
44	34
45	3
50	51
51	41
52	18
53	44
54	11
55	118
56	33
57	46
58	2
61	3
62	13
63	58
64	47
65	107
66	14
67	9
68	2
69	22
70	2
74	8
75	11
76	33
77	65
78	17
79	30
80	3
81	1
83	2
84	7
85	11
89	9
90	5
91	43
92	50
93	68
94	8
103	2
104	12
105	8
106	4
107	33
108	12
118	2
119	12
121	715
122	53
123	5
132	1
133	2
136	82
137	64
138	5
147	5
149	8
150	1
161	2
205	21
206	3
220	48
221	14
222	2
