Mass Spectrum: Pregnan-20-one, 3,17-bis[(trimethylsilyl)oxy]-, O-(phenylmethyl)oxime, (3.beta.,5.alpha.)-
Formula: C34H57NO3Si2
CAS: 57363-10-7
Molecular weight: 583
m/z	intensity
41	100
42	45
43	110
44	50
45	55
47	20
50	20
51	55
52	15
53	20
55	150
56	15
57	25
59	45
61	35
63	15
65	30
67	110
68	25
69	50
70	25
72	15
73	999
74	110
75	750
76	55
77	220
78	40
79	200
80	30
81	210
82	20
83	40
84	25
85	15
89	30
90	15
91	999
92	100
93	215
94	40
95	160
96	25
97	35
100	15
101	35
103	25
104	30
105	260
106	120
107	290
108	100
109	85
110	25
111	15
114	45
115	40
116	30
117	55
118	20
119	100
120	30
121	105
122	30
123	35
124	15
127	25
128	15
129	130
130	80
131	110
132	40
133	115
134	40
135	130
136	25
137	20
138	15
141	20
142	100
143	90
144	40
145	130
146	40
147	185
148	45
149	50
150	25
151	20
154	15
155	70
156	60
157	45
158	260
159	125
160	55
161	120
162	20
163	20
165	55
166	20
167	25
168	35
169	95
170	110
171	125
172	230
173	105
174	250
175	55
176	25
177	15
179	15
180	15
181	40
182	45
183	55
184	25
185	35
186	420
187	80
188	35
189	20
190	15
191	20
192	20
193	20
194	10
195	25
196	20
197	25
198	20
199	40
200	65
201	35
202	30
204	20
205	15
209	30
210	25
211	20
213	35
214	15
215	50
216	25
217	20
218	15
221	60
222	20
223	20
225	15
227	20
228	15
229	40
230	20
231	15
233	20
235	15
237	15
238	15
239	75
240	25
241	20
246	30
248	35
251	30
253	40
254	20
255	150
256	40
257	15
263	30
264	230
265	60
266	15
271	35
272	20
276	55
277	20
279	20
284	10
294	20
295	25
296	95
297	25
305	10
312	150
313	35
329	45
330	15
331	15
332	10
334	140
335	35
336	10
344	15
345	25
346	20
347	150
348	35
349	10
350	15
357	10
358	30
359	10
361	25
362	30
363	10
369	15
370	10
372	10
384	15
385	20
386	135
387	50
388	35
393	10
401	10
402	190
403	55
404	25
405	15
406	10
418	10
419	210
420	100
421	45
422	15
432	15
433	25
434	150
435	95
436	40
437	10
438	15
439	15
440	310
441	125
442	30
447	225
448	85
449	25
450	10
462	90
463	25
464	10
477	60
478	70
479	710
480	290
481	140
482	40
483	10
490	35
491	45
492	910
493	390
494	160
495	35
496	10
568	125
569	50
570	20
571	5
582	10
583	50
584	25
585	5
