Mass Spectrum: Silane, [[(6.alpha.,16.alpha.,17.beta.)-estra-1,3,5(10)-triene-3,6,16,17-tetrayl]tetrakis(oxy)]tetrakis[trimethyl-
Formula: C30H56O4Si4
CAS: 57363-11-8
Molecular weight: 592
m/z	intensity
41	15
43	15
44	5
45	35
47	5
55	15
57	5
59	15
61	5
67	10
68	10
69	10
71	5
72	15
73	999
74	90
75	170
76	10
77	10
79	10
81	25
82	5
83	5
85	5
89	5
91	10
93	35
95	10
97	5
101	10
103	70
104	10
105	10
107	10
109	5
113	5
115	10
116	5
117	60
118	5
119	10
127	5
128	5
129	85
130	15
131	25
132	10
133	35
134	5
135	5
141	10
142	10
143	45
144	5
145	10
146	10
147	195
148	30
149	25
153	5
154	10
155	15
156	10
157	20
158	5
159	5
161	10
163	5
165	10
167	15
168	15
169	70
170	20
171	10
175	5
177	15
178	5
179	15
180	10
181	20
182	25
183	20
184	5
185	5
187	10
189	15
190	10
191	20
192	10
193	15
194	10
195	10
196	10
199	5
200	5
201	25
202	10
203	50
204	35
205	55
206	15
207	15
208	5
209	5
211	5
213	10
214	10
215	40
216	35
217	50
218	30
219	15
220	5
221	10
223	5
225	5
227	20
228	20
229	265
230	195
231	70
232	20
233	10
235	5
237	10
239	10
240	10
241	15
242	60
243	50
244	30
245	15
249	5
250	5
251	15
252	10
253	25
254	20
255	35
256	25
257	20
258	10
259	5
263	5
264	5
265	20
266	15
267	40
268	35
269	50
270	30
271	15
272	5
278	5
279	20
280	30
281	60
282	60
283	165
284	65
285	25
286	10
289	5
291	5
292	5
293	20
294	25
295	50
296	65
297	65
298	40
299	15
300	5
303	10
304	10
305	15
306	15
307	50
308	25
309	125
310	40
311	20
312	10
313	10
317	20
318	15
319	15
320	15
321	55
322	210
323	105
324	30
325	10
330	5
331	5
332	10
339	10
340	15
341	10
342	5
343	20
344	15
345	10
346	5
355	5
356	5
357	10
358	10
359	10
360	5
369	10
370	5
371	10
372	5
373	5
383	10
384	20
385	15
386	10
387	10
388	5
395	5
396	10
397	75
398	30
399	15
400	5
409	5
410	10
411	20
412	95
413	40
414	20
415	5
430	10
431	5
433	5
487	15
488	10
489	5
494	5
495	5
496	10
497	20
498	25
499	40
500	55
501	95
502	999
503	480
504	225
505	65
506	20
507	10
508	5
577	15
578	10
579	5
590	5
591	10
592	15
593	10
594	5
