Mass Spectrum: 16-Hydroxydehydroandrosterone, 2TMS derivative
Formula: C25H44O3Si2
CAS: 57377-53-4
Molecular weight: 448
m/z	intensity
41	120
42	14
43	69
44	40
45	109
46	9
47	40
48	4
49	4
50	20
51	20
52	20
53	24
54	9
55	134
56	20
57	29
58	9
59	100
60	9
61	49
62	4
63	9
64	4
65	20
66	14
67	100
68	9
69	54
70	9
71	20
72	20
73	999
74	114
75	580
76	44
77	100
78	29
79	180
80	29
81	274
82	29
83	29
84	4
85	20
87	14
88	9
89	29
90	4
91	189
92	40
93	149
94	129
95	120
96	20
97	20
98	4
99	20
100	9
101	120
102	20
103	80
104	29
105	189
106	54
107	120
108	74
109	69
110	9
111	14
113	20
115	49
116	80
117	440
118	109
119	180
120	134
121	100
122	40
123	14
125	9
127	9
128	34
129	714
130	129
131	220
132	74
133	94
134	94
135	29
136	9
137	9
139	4
141	24
142	34
143	160
144	64
145	149
146	60
147	80
148	20
149	20
150	9
151	20
152	9
153	9
154	9
155	49
156	34
157	129
158	114
159	154
160	29
161	24
162	4
163	9
164	4
165	64
166	20
167	24
168	60
169	89
170	29
171	74
172	69
173	140
174	69
175	344
176	60
177	9
178	9
179	20
180	20
181	60
182	29
183	29
184	14
185	49
186	40
187	20
188	40
189	14
191	49
192	14
193	29
194	24
195	54
196	334
197	109
198	29
199	389
200	60
201	20
202	4
203	9
204	9
205	9
206	9
207	34
208	20
209	29
210	20
211	29
212	14
213	49
214	999
215	184
216	20
217	20
218	9
219	20
220	20
221	20
222	9
223	20
224	9
225	24
226	9
227	9
229	9
230	9
231	14
232	14
233	20
234	9
235	20
236	20
237	20
238	9
239	20
240	20
241	9
243	4
244	4
245	4
247	20
248	14
249	14
250	9
251	49
252	20
253	14
254	9
255	9
256	4
257	9
259	9
261	9
262	4
263	9
267	9
268	34
269	20
270	9
271	9
273	4
275	9
281	14
282	4
283	4
284	4
285	4
286	4
287	4
288	4
289	40
290	14
291	9
292	4
295	9
296	4
297	4
298	4
299	4
301	14
302	49
303	29
304	580
305	180
306	49
307	4
311	24
312	9
313	9
314	4
315	9
316	4
317	9
318	9
319	4
320	9
321	4
325	9
326	4
327	14
328	9
329	14
330	49
331	14
332	4
338	4
339	44
340	44
341	24
342	9
343	69
344	24
345	9
346	4
355	4
356	9
357	4
358	24
359	9
360	4
361	9
362	4
372	4
374	4
376	4
377	4
378	4
386	4
387	4
391	4
392	4
393	4
394	4
405	4
415	9
416	9
417	14
418	29
419	20
420	9
421	4
428	4
429	4
430	20
431	20
432	14
433	60
434	24
435	9
445	4
446	9
447	14
448	94
449	34
450	14
451	4
