Mass Spectrum: Hydroxymethyltryptamine
Formula: C11H14N2O
CAS: 57383-99-0
Molecular weight: 190
m/z	intensity
42	82
43	83
44	999
51	94
53	14
55	14
56	29
58	272
62	21
64	56
65	93
66	16
76	58
89	118
91	115
92	43
101	23
102	29
105	15
117	106
118	43
130	54
140	10
144	21
145	38
146	600
147	659
148	64
159	46
190	54
