Mass Spectrum: D-Glycero-D-galacto-2-Nonulosonic acid, 5-(acetylamino)-3,5-dideoxy-4,6,7,8,9-pentakis-O-(trimethylsilyl)-, methyl ester
Formula: C27H61NO9Si5
CAS: 57397-00-9
Molecular weight: 683
m/z	intensity
41	25
42	16
43	119
44	29
45	53
47	12
50	6
51	6
52	8
53	8
54	6
55	25
56	16
57	12
58	9
59	40
60	12
61	12
67	9
68	9
69	16
70	11
71	9
72	20
73	999
74	83
75	158
76	12
77	12
78	6
79	12
80	9
81	16
82	11
83	12
84	41
85	12
86	6
87	6
88	6
89	74
90	9
91	11
93	8
94	6
95	9
96	12
97	8
98	12
99	6
100	12
101	29
102	9
103	112
104	12
105	17
106	6
107	6
108	6
109	9
110	9
111	6
112	6
113	9
114	9
115	32
116	101
117	96
118	19
119	12
122	9
123	6
124	8
125	6
126	19
127	9
128	25
129	38
130	17
131	61
132	27
133	64
134	12
135	11
136	9
138	8
139	9
140	8
141	8
142	12
143	87
144	70
145	25
146	9
147	209
148	33
149	32
150	9
151	6
152	8
153	6
154	22
155	12
156	19
157	46
158	48
159	48
160	22
161	16
162	6
163	11
166	9
167	22
168	19
169	14
170	22
171	9
172	29
173	72
174	16
175	16
176	6
177	9
180	6
181	8
182	11
183	6
184	12
185	9
186	93
187	29
188	9
189	19
190	9
191	22
192	9
193	6
194	6
196	22
197	9
198	19
199	8
200	6
201	12
202	11
203	29
204	54
205	75
206	20
207	14
208	19
209	6
210	9
211	6
212	11
213	6
214	16
215	9
216	8
217	93
218	25
219	12
220	6
221	11
222	6
224	9
225	6
226	11
227	25
228	14
229	6
230	8
231	20
232	6
233	6
234	9
238	6
239	6
240	16
241	6
242	11
243	14
244	19
245	14
246	27
247	19
248	6
249	11
250	6
255	6
256	22
257	16
258	16
259	32
260	9
264	6
265	9
266	14
267	8
268	6
270	20
271	12
272	9
273	6
274	6
275	19
276	12
277	8
281	6
282	8
284	8
286	25
287	9
288	12
289	6
297	6
298	322
299	66
300	137
301	40
302	19
304	6
306	6
307	9
310	9
312	6
317	112
318	32
319	14
324	12
329	16
330	32
331	12
332	6
342	8
345	6
346	9
356	6
358	17
359	14
360	12
361	11
362	6
371	9
372	6
373	9
374	6
376	8
388	19
389	8
390	6
398	6
400	54
401	19
402	9
420	12
431	19
432	8
449	19
450	8
462	6
478	80
479	29
480	16
490	8
492	9
578	8
624	19
625	11
626	6
640	6
668	25
669	12
670	6
