Mass Spectrum: Trichloroacetic acid, 2,2-dimethylpropyl ester
Formula: C7H11Cl3O2
CAS: 57392-56-0
Molecular weight: 232
m/z	intensity
26	6
27	37
28	10
29	101
30	3
31	2
35	6
36	34
37	2
38	11
39	50
40	9
41	175
42	17
43	235
44	8
47	11
48	2
49	4
50	5
51	7
52	9
53	14
54	4
55	450
56	48
57	999
58	38
61	2
63	4
65	1
67	3
69	16
70	14
71	270
72	16
73	6
76	3
78	2
79	14
80	2
82	36
83	10
84	22
85	6
86	4
87	12
89	2
91	5
92	1
93	2
99	1
110	30
111	2
112	20
113	1
114	3
117	170
118	2
119	164
120	2
121	50
123	5
127	4
129	2
145	2
147	2
163	1
183	2
197	9
199	6
216	4
217	25
218	5
219	24
220	3
221	8
