Mass Spectrum: Pregn-4-ene-3,11-dione, 17,20,21-tris[(trimethylsilyl)oxy]-, (20R)-
Formula: C30H54O5Si3
CAS: 57397-21-4
Molecular weight: 578
m/z	intensity
41	165
42	40
43	190
44	50
45	130
46	10
47	40
50	10
51	10
52	10
53	45
54	15
55	200
56	20
57	50
58	20
59	110
60	15
61	40
65	25
66	15
67	95
68	30
69	95
70	15
71	30
72	40
73	999
74	180
75	575
76	40
77	125
78	30
79	120
80	40
81	100
82	40
83	40
84	10
85	20
87	15
88	15
89	50
91	175
92	30
93	100
94	20
95	90
96	20
97	60
98	10
99	15
101	270
102	35
103	250
104	35
105	150
106	30
107	140
108	25
109	50
110	15
111	20
115	35
116	999
117	450
118	75
119	120
120	30
121	170
122	120
123	75
124	30
125	15
127	15
128	20
129	210
130	40
131	95
132	35
133	160
134	65
135	85
136	35
137	25
139	10
141	15
142	35
143	175
144	35
145	135
146	30
147	350
148	70
149	95
150	20
151	15
154	10
155	45
156	25
157	70
158	40
159	60
160	35
161	90
162	30
163	120
164	20
165	25
167	10
169	25
171	100
172	35
173	45
174	15
175	50
176	15
177	15
178	10
179	20
181	20
182	10
183	25
184	10
185	25
186	10
187	35
188	10
189	70
190	15
191	30
192	10
193	35
194	90
195	40
196	45
197	35
198	10
199	20
201	20
202	10
203	10
204	15
205	130
206	30
207	75
208	20
209	25
210	10
211	20
213	15
215	15
217	15
218	10
219	10
221	30
222	10
223	20
225	20
227	20
228	10
229	10
231	15
232	10
233	10
235	20
237	10
238	10
239	20
240	10
241	20
242	10
243	45
244	30
245	50
246	40
247	15
249	10
251	15
253	15
255	25
256	25
257	30
258	10
259	15
261	20
263	10
265	15
267	20
271	10
274	20
277	20
281	25
282	10
283	40
284	20
285	60
286	10
293	10
295	25
296	10
297	10
298	10
299	10
300	25
301	40
302	10
308	25
309	20
313	30
314	10
315	10
317	10
318	20
326	25
327	20
331	10
341	10
343	10
346	20
355	20
356	10
357	15
359	10
369	15
370	10
371	25
372	45
373	750
374	225
375	70
376	10
384	10
385	170
386	60
387	65
388	20
398	55
399	20
400	10
401	30
402	15
403	180
404	60
405	15
416	45
417	15
429	15
431	10
447	10
490	10
506	50
507	20
508	10
578	30
579	15
580	6
