Mass Spectrum: 4H-1-Benzopyran-4-one, 2-[4-[(6-deoxy-.alpha.-l-mannopyranosyl)oxy]phenyl]-8-(.beta.-d-glucopyranosyloxy)-5,7-dihydroxy-
Formula: C27H30O15
CAS: 57396-71-1
Molecular weight: 594
m/z	intensity
25	7
26	45
27	201
29	396
30	78
31	278
33	17
34	0
35	1
36	9
37	31
38	35
39	142
41	242
42	147
43	999
45	384
46	28
47	27
48	2
49	14
50	59
51	68
52	45
53	337
54	84
55	218
56	127
57	532
58	420
59	100
60	437
61	157
62	26
63	27
64	16
65	28
66	17
67	43
68	39
69	152
70	72
71	390
72	86
73	449
74	163
75	101
76	12
77	25
78	9
79	21
80	22
81	109
82	73
83	92
84	78
85	215
86	78
87	102
88	38
89	47
90	19
91	25
92	12
93	19
94	22
95	73
96	23
97	50
98	42
99	74
100	73
101	39
102	108
103	36
104	14
105	15
106	4
107	17
108	17
109	470
110	665
111	139
112	44
113	221
114	29
115	41
116	19
117	72
118	52
119	31
120	11
121	48
122	14
123	25
124	25
125	15
126	42
127	44
128	393
129	138
130	25
131	19
132	7
133	20
134	12
135	18
136	28
137	18
138	11
139	18
140	26
141	19
142	11
143	7
144	9
145	13
146	25
147	84
148	11
149	14
150	22
151	13
152	31
153	37
154	11
155	10
156	8
157	27
158	10
159	12
160	4
161	11
162	7
163	26
164	10
165	43
166	13
167	9
168	10
169	8
170	12
171	12
172	3
173	6
174	5
175	50
176	21
177	18
178	27
179	9
180	7
181	8
182	7
183	7
184	4
185	4
186	3
187	7
188	14
189	17
190	11
191	11
192	9
193	6
194	9
195	5
196	6
197	6
198	3
199	4
200	4
201	6
202	7
203	8
204	4
205	18
206	9
207	4
208	3
209	2
210	2
211	3
212	4
213	9
214	5
215	3
216	3
217	12
218	5
219	5
220	9
221	4
222	4
223	3
224	2
225	3
226	3
227	3
228	2
229	5
230	5
231	4
232	3
233	2
234	1
235	2
236	2
237	3
238	7
239	6
240	2
241	16
242	32
243	11
244	3
245	3
246	2
247	2
248	2
249	1
250	1
251	2
252	1
253	11
254	46
255	11
256	6
257	7
258	3
259	2
260	1
261	4
262	2
263	2
264	1
265	4
266	8
267	13
268	12
269	26
270	260
271	38
272	8
273	2
274	2
275	2
276	1
277	0
278	1
279	4
280	3
281	7
282	31
283	154
284	31
285	6
286	1
287	1
288	0
289	0
290	0
291	1
292	1
293	4
294	36
295	47
296	48
297	14
298	6
299	2
300	1
301	1
302	1
303	1
304	0
305	1
306	1
307	24
308	20
309	63
310	60
311	17
312	24
313	6
314	2
315	0
316	1
317	0
318	0
319	0
320	3
321	14
322	19
323	34
324	113
325	35
326	11
327	2
328	0
329	0
331	1
332	1
333	4
334	3
335	6
336	21
337	8
338	21
339	5
340	6
341	1
342	3
343	0
344	2
345	2
346	1
347	6
348	6
349	6
350	15
351	3
352	13
353	2
354	3
355	0
356	0
357	0
358	1
359	1
360	41
361	18
362	13
363	18
364	8
365	2
366	25
367	6
368	2
369	0
370	0
371	0
372	1
373	4
374	3
375	3
376	1
377	3
378	88
379	26
380	13
381	3
382	1
383	0
384	0
385	0
387	0
388	3
389	0
390	2
391	1
392	0
393	0
394	2
395	0
396	4
397	1
398	0
399	0
400	0
401	0
402	12
