Mass Spectrum: Silane, [[(3.alpha.,5.beta.,11.beta.,20R)-pregnane-3,11,17,20-tetrayl]tetrakis(oxy)]tetrakis[trimethyl-
Formula: C33H68O4Si4
CAS: 57397-17-8
Molecular weight: 640
m/z	intensity
41	120
42	20
43	120
44	50
45	60
47	40
53	20
55	250
56	30
57	130
59	50
61	40
67	150
68	20
69	100
70	20
71	70
72	20
73	999
74	170
75	740
76	70
77	100
78	20
80	30
81	200
82	40
83	100
85	60
91	180
92	40
93	200
94	90
95	210
96	30
97	40
99	20
101	50
103	70
104	20
105	220
106	120
107	220
108	70
109	110
110	20
111	30
113	20
115	40
116	30
117	510
118	110
119	180
120	60
121	110
122	40
123	40
124	30
125	30
127	40
128	20
129	150
130	60
131	200
132	60
133	150
134	50
135	70
136	20
137	20
141	40
142	50
143	350
144	90
145	210
146	50
147	410
148	80
149	90
150	20
151	20
154	20
155	110
156	110
157	180
158	60
159	190
160	60
161	70
162	30
163	30
165	20
167	30
168	40
169	190
170	80
171	180
172	70
173	120
174	70
175	70
176	20
177	20
179	30
180	20
181	130
182	40
183	80
184	50
185	110
186	30
187	60
188	20
189	30
190	30
191	100
192	30
193	60
194	30
195	70
196	40
197	110
198	40
199	120
200	40
201	60
202	30
203	30
204	20
205	30
207	100
208	40
209	50
210	30
211	160
212	60
213	160
214	60
215	50
216	30
217	100
218	150
219	70
220	30
221	110
222	30
223	40
224	30
225	100
226	260
227	210
228	130
229	40
230	30
231	110
232	70
233	50
234	20
235	30
237	30
238	20
239	60
240	40
241	50
242	30
243	50
244	90
245	330
246	100
247	60
249	40
251	60
252	20
253	999
254	260
255	60
256	40
257	110
258	40
259	20
261	20
262	30
263	20
265	60
266	20
269	50
270	30
271	20
272	20
279	20
280	60
281	130
282	40
283	140
284	40
285	60
286	20
287	20
289	20
291	20
295	50
296	20
297	20
298	500
299	140
300	30
301	40
302	20
303	20
304	20
305	20
315	20
316	20
317	30
318	20
341	40
342	20
343	950
344	280
345	100
346	20
355	40
359	20
369	40
370	40
371	100
372	40
373	80
374	20
387	60
388	220
389	70
390	20
429	20
431	20
432	20
433	420
434	160
435	60
436	20
445	30
460	70
461	30
462	20
463	50
464	20
478	60
479	30
523	500
524	240
525	100
526	60
535	30
536	20
537	10
550	250
551	120
552	60
553	20
625	5
640	90
641	50
642	30
