Mass Spectrum: 1,2-Naphthalenediol, 4-chloro-, diacetate
Formula: C14H11ClO4
CAS: 57396-88-0
Molecular weight: 278
m/z	intensity
41	200
43	999
55	120
56	150
57	350
69	90
71	130
77	150
85	140
91	100
101	120
102	100
165	1
194	890
195	140
196	300
236	160
237	30
238	50
263	180
264	30
265	60
278	90
279	12
280	30
281	7
