Mass Spectrum: 3H-Pyrazol-3-one, 4-chloro-1,2-dihydro-5-methyl-2-phenyl-1-(trimethylsilyl)-
Formula: C13H17ClN2OSi
CAS: 57396-96-0
Molecular weight: 280
m/z	intensity
45	420
51	210
65	110
73	999
74	330
75	250
77	630
91	130
93	170
105	110
149	140
151	80
189	140
190	50
191	80
207	70
245	100
265	370
266	110
267	170
280	999
281	260
282	400
