Mass Spectrum: Androsta-1,4-dien-3-one, 17-methyl-17-[(trimethylsilyl)oxy]-, O-methyloxime, (17.beta.)-
Formula: C24H39NO2Si
CAS: 57397-03-2
Molecular weight: 401
m/z	intensity
39	11
41	53
42	6
43	159
44	9
45	89
46	4
47	19
50	1
51	4
52	2
53	22
54	6
55	66
56	6
57	8
58	8
59	21
60	6
61	17
63	4
64	2
65	22
66	6
67	90
68	17
69	27
70	4
71	19
72	26
73	999
74	92
75	327
76	25
77	63
78	30
79	101
80	17
81	75
82	8
83	8
84	4
85	8
86	2
87	2
88	17
90	8
91	183
92	65
93	130
94	22
95	80
96	7
97	8
98	2
99	5
101	4
102	6
103	37
104	111
105	130
106	52
107	117
108	48
109	218
110	25
111	4
113	4
114	2
115	95
116	42
117	150
118	61
119	154
120	418
121	242
122	29
123	9
124	3
125	4
127	14
128	27
129	92
130	65
131	92
132	112
133	139
134	254
135	67
136	21
137	8
138	44
139	6
140	4
141	23
142	24
143	626
144	170
145	89
146	126
147	106
148	51
149	459
150	128
151	126
152	17
153	8
154	11
155	23
156	42
157	58
158	67
159	85
160	50
161	238
162	62
163	88
164	14
165	9
166	4
167	9
168	14
169	22
170	61
171	38
172	57
173	120
174	29
175	21
176	53
177	16
178	4
179	5
180	6
181	14
182	16
183	25
184	38
185	14
186	18
187	11
188	10
189	8
190	2
191	3
192	8
193	8
194	9
195	14
196	18
197	15
198	22
199	8
200	8
201	7
202	7
203	4
204	2
205	2
206	2
207	13
208	14
209	12
210	18
211	12
212	35
213	9
214	4
215	3
216	1
217	2
218	1
219	1
220	2
221	5
222	10
223	9
224	33
225	17
226	49
227	17
228	6
229	1
234	1
235	4
236	5
237	16
238	16
239	9
240	59
241	12
242	1
243	1
247	1
248	1
249	2
250	4
251	5
252	3
253	1
254	7
255	2
256	4
257	1
258	2
263	1
264	10
265	10
266	3
267	1
268	1
269	1
271	4
278	4
279	4
280	127
281	31
282	6
296	3
297	1
311	5
312	1
354	2
355	2
356	0
368	0
369	1
370	22
371	9
372	1
373	0
386	10
387	3
388	1
401	107
402	33
403	9
404	1
