Mass Spectrum: L-Ascorbic acid, 2-O-methyl-3,5,6-tris-O-(trimethylsilyl)-
Formula: C16H34O6Si3
CAS: 57397-19-0
Molecular weight: 406
m/z	intensity
41	10
43	20
44	20
45	95
46	5
47	10
53	5
55	5
57	10
58	10
59	60
60	5
61	10
66	5
67	5
68	5
69	5
71	5
72	15
73	999
74	90
75	85
76	5
77	5
79	5
83	10
85	5
87	5
88	5
89	100
90	10
91	5
95	5
97	5
98	5
99	15
100	5
101	20
102	5
103	20
111	5
113	5
115	5
116	5
117	250
118	25
119	20
125	5
127	10
128	5
129	5
130	5
131	15
132	5
133	70
134	10
135	10
141	5
142	15
143	30
144	5
145	5
147	380
148	60
149	55
150	5
151	5
153	5
155	5
156	5
157	10
159	5
163	15
164	5
169	5
171	5
172	5
173	10
175	5
177	5
183	5
186	10
187	5
189	5
197	5
199	15
201	40
202	10
203	5
204	10
205	300
206	50
207	25
208	5
215	45
216	10
217	5
221	5
227	5
232	5
243	10
244	5
245	5
246	5
247	5
258	5
260	5
273	15
274	590
275	150
276	65
277	10
287	40
288	10
289	5
301	45
302	10
303	20
304	5
316	50
317	15
318	5
361	15
362	5
391	65
392	20
393	10
394	5
406	15
407	5
