Mass Spectrum: 2,4,6(1H,3H,5H)-Pyrimidinetrione, 5-ethyl-1-methyl-5-[1-methyl-3-[(trimethylsilyl)oxy]butyl]-3-(trimethylsilyl)-
Formula: C18H36N2O4Si2
CAS: 57397-42-9
Molecular weight: 400
m/z	intensity
40	52
41	999
42	210
43	640
44	100
45	260
46	20
47	35
48	7
49	11
50	40
51	60
52	92
53	160
54	60
55	550
56	200
57	650
58	160
59	290
60	20
61	35
62	6
63	13
64	10
65	41
66	40
67	320
68	150
69	800
70	230
71	400
72	150
73	999
74	180
75	300
76	42
77	70
78	35
79	180
80	55
81	200
82	105
83	230
84	85
85	230
86	60
87	20
88	23
89	280
90	30
91	65
92	20
93	55
94	42
95	240
96	170
97	380
98	65
99	90
100	180
101	35
102	25
103	20
104	25
105	67
106	22
107	26
108	23
109	140
110	230
111	120
112	75
113	82
114	23
115	40
116	31
117	50
118	15
119	30
120	15
121	25
122	20
123	180
124	130
125	60
126	55
127	63
128	95
129	35
130	75
131	37
132	45
133	81
134	18
135	30
136	22
137	65
138	85
139	95
140	45
141	55
142	25
143	33
144	15
145	25
146	10
147	75
148	26
149	40
150	15
151	22
152	80
153	35
154	55
155	66
156	22
157	30
158	17
159	21
160	20
161	10
162	10
163	15
164	10
165	33
166	85
167	70
168	52
169	165
170	60
171	110
172	25
173	55
174	71
175	20
176	15
177	15
178	13
179	20
180	50
181	60
182	30
183	45
184	200
185	90
186	80
187	20
188	10
189	11
190	6
191	20
192	6
193	15
194	13
195	31
196	30
197	28
198	20
199	25
200	22
201	13
202	11
203	10
204	7
205	15
206	5
207	26
208	15
209	31
210	25
211	50
212	25
213	81
214	35
215	26
216	7
217	7
218	5
219	10
220	5
221	10
222	6
223	28
224	12
225	41
226	30
227	160
228	43
229	25
230	7
231	5
232	5
233	3
234	3
236	5
237	12
238	20
239	46
240	20
241	300
242	100
243	96
244	20
245	11
246	5
247	5
248	5
249	5
250	5
251	5
252	7
253	15
254	5
255	40
256	93
257	170
258	42
259	35
260	10
262	5
264	5
266	5
267	25
268	10
269	22
270	55
271	999
272	410
273	100
274	20
275	5
280	5
281	26
282	10
283	42
284	25
285	410
286	85
287	30
288	5
295	15
296	7
297	17
298	10
299	175
300	170
301	50
302	12
303	5
310	5
311	110
312	35
313	60
314	150
315	67
317	11
318	5
324	5
325	10
326	7
327	160
328	55
329	260
330	100
331	40
332	10
333	5
340	5
341	20
342	50
343	300
344	80
345	31
346	10
355	5
357	11
358	6
369	37
370	10
371	5
372	10
373	5
385	210
386	70
387	25
388	5
399	1
400	6
401	1
