Mass Spectrum: Silane, [[(3.beta.,17.beta.)-androsta-5,15-diene-3,16,17-triyl]tris(oxy)]tris[trimethyl-
Formula: C28H52O3Si3
CAS: 57397-22-5
Molecular weight: 520
m/z	intensity
41	100
42	30
43	140
44	30
45	160
47	30
53	25
55	90
56	20
57	40
58	20
59	60
61	30
65	20
67	70
68	30
69	40
71	20
72	30
73	999
74	260
75	550
76	40
77	60
78	20
79	90
80	30
81	80
82	20
83	20
85	20
89	20
91	140
92	30
93	90
94	20
95	60
101	20
103	60
104	20
105	140
106	20
107	70
108	20
109	20
115	40
116	25
117	120
118	30
119	100
120	20
121	30
128	20
129	220
130	50
131	120
132	40
133	110
134	20
135	20
141	30
142	30
143	100
144	40
145	80
146	20
147	450
148	70
149	60
151	20
155	50
156	30
157	80
158	30
159	70
165	30
166	20
167	50
168	30
169	70
170	20
171	40
173	20
179	30
180	20
181	80
182	30
183	40
185	20
191	30
193	30
194	20
195	50
196	20
197	35
199	30
205	20
207	30
209	30
211	20
217	50
218	20
219	20
220	20
221	20
230	120
231	50
232	20
233	20
235	30
237	30
241	20
244	20
250	20
255	20
256	40
257	30
269	40
270	20
325	30
327	70
328	20
340	30
416	70
417	30
418	230
419	80
420	30
431	40
432	25
433	10
490	30
491	50
492	50
493	30
505	999
506	450
507	210
508	70
509	20
519	80
520	820
521	380
522	180
523	60
