Mass Spectrum: 2H-Quinolizine-1-carboxylic acid, octahydro-, (1R-trans)-
Formula: C10H17NO2
CAS: 574-99-2
Molecular weight: 183
m/z	intensity
52	50
53	103
54	154
55	377
56	129
57	50
67	78
68	105
69	89
70	141
82	267
83	999
84	330
96	724
97	577
110	425
111	440
123	74
124	122
136	47
137	23
138	144
139	200
182	141
183	362
184	89
