Mass Spectrum: Ethyl 3-hydroxytetracosanoate
Formula: C26H52O3
CAS: 57402-37-6
Molecular weight: 412
m/z	intensity
29	24
39	8
41	70
42	28
43	191
44	17
45	19
47	5
54	20
55	126
56	38
57	117
58	10
60	31
61	32
66	5
67	53
69	95
70	70
71	242
72	15
73	22
75	47
83	81
84	68
85	52
86	7
87	11
88	117
89	144
90	12
96	64
97	75
98	40
99	24
100	6
101	76
102	9
111	34
112	10
113	16
114	17
115	68
116	19
117	999
118	84
127	30
128	32
129	24
130	9
133	14
138	12
139	14
141	26
142	26
143	14
144	7
145	21
151	16
152	10
153	10
154	10
155	28
156	7
157	7
166	6
168	5
169	14
171	19
177	13
181	8
189	19
199	8
209	8
211	7
221	13
235	12
236	7
237	7
247	6
248	8
250	11
263	14
264	20
265	8
266	4
267	17
268	6
277	9
292	11
295	8
297	20
298	7
304	11
305	5
306	34
311	10
319	4
323	9
330	4
337	3
347	3
348	40
349	18
350	6
354	2
355	5
394	16
395	9
