Mass Spectrum: trans-Verbenyl isovalerate
Formula: C15H24O2
CAS: 57412-35-8
Molecular weight: 236
m/z	intensity
27	55
29	82
39	91
40	17
41	332
42	31
43	354
44	13
45	11
50	5
51	24
52	11
53	63
54	13
55	119
56	16
57	507
58	33
59	48
60	14
63	9
64	4
65	55
66	16
69	82
70	7
72	6
77	121
78	28
79	110
82	34
84	16
85	329
86	21
87	5
91	185
92	57
93	209
94	59
96	20
103	16
104	9
105	117
106	21
107	63
109	151
115	17
116	4
117	27
118	7
119	999
120	110
131	5
132	4
133	29
134	158
135	48
137	55
138	8
146	2
151	14
152	9
160	2
163	5
164	7
165	2
178	1
180	1
189	9
193	1
194	1
