Mass Spectrum: Bis(n-propylthio)methane
Formula: C7H16S2
CAS: 57422-58-9
Molecular weight: 164
m/z	intensity
45	318
46	207
47	489
49	28
55	97
58	22
59	44
60	53
61	531
63	23
73	148
74	19
75	20
76	28
78	35
79	130
87	18
88	417
89	999
90	95
91	67
117	24
121	12
122	23
164	655
165	60
166	55
