Mass Spectrum: l-Alanyl-d-histidine
Formula: C9H14N4O3
CAS: 57448-85-8
Molecular weight: 226
m/z	intensity
41	65
42	104
43	48
44	352
45	17
51	6
52	32
53	29
54	167
55	84
56	40
57	21
58	10
66	22
67	11
68	28
69	64
70	19
71	19
72	6
73	1
81	769
82	999
83	84
84	8
85	16
89	2
93	36
94	108
95	44
96	7
99	41
100	15
107	9
108	107
109	95
110	73
111	9
113	76
114	5
121	43
122	60
123	28
127	7
128	159
129	11
130	1
131	13
136	73
137	105
138	10
140	21
164	16
165	34
166	9
180	13
193	8
207	21
208	359
209	185
210	19
226	9
227	1
