Mass Spectrum: 1,3-Dioxolane-2-butanol, 2-methyl-
Formula: C8H16O3
CAS: 5745-75-5
Molecular weight: 160
m/z	intensity
41	150
42	60
43	999
44	50
45	60
50	10
51	10
53	30
54	10
55	240
56	40
57	50
58	40
59	50
61	30
62	10
67	20
69	20
70	30
71	40
72	20
79	10
81	10
83	110
84	10
85	30
86	20
87	640
88	30
97	80
98	160
99	140
100	10
101	20
105	10
115	10
145	80
146	10
