Mass Spectrum: Dimethyl tartarate [S-(R*,R*)]-, 2TMS derivative
Formula: C12H26O6Si2
CAS: 57456-93-6
Molecular weight: 322
m/z	intensity
41	10
42	15
43	135
44	100
45	580
46	35
47	70
48	5
51	5
52	5
53	10
54	5
55	30
56	10
57	35
58	60
59	680
60	55
61	80
62	5
66	10
68	5
69	25
70	10
71	20
72	55
73	999
74	200
75	340
77	15
85	30
86	10
87	20
88	20
89	999
90	80
91	55
99	20
100	5
101	70
102	145
103	280
104	30
105	80
106	5
107	15
113	5
115	15
116	50
117	40
118	10
119	115
120	15
121	20
129	10
130	70
131	130
132	25
133	160
134	20
135	15
143	55
144	10
145	10
146	40
147	700
148	80
149	50
150	5
157	5
159	35
160	5
161	270
162	30
163	65
164	10
165	5
173	5
175	80
176	15
177	10
189	15
201	5
203	10
204	15
207	5
217	65
218	10
219	15
220	5
234	230
235	70
236	25
237	5
247	95
248	20
249	10
263	35
264	10
265	5
307	85
308	25
309	10
322	0
