Mass Spectrum: Methyl-2,3,4-tri-O-methyl-6-O-(methylester-2,3-di-O-methyl-4-deoxy.beta.l-threo-hex-4-enopyranosyl uronic acid).alpha.d-glucopyranoside
Formula: C19H32O11
CAS: 57472-15-8
Molecular weight: 436
m/z	intensity
45	8
71	74
75	999
85	15
88	530
101	14
111	14
113	20
127	25
131	111
141	12
145	15
155	14
159	18
169	23
187	76
201	14
215	6
219	43
292	364
335	198
373	10
