Mass Spectrum: 1-Bromo-4-[4-(4-bromophenoxymethyl)-benzyloxy]benzene
Formula: C20H16Br2O2
CAS: 57471-87-1
Molecular weight: 446
m/z	intensity
12	2
14	1
15	3
16	6
17	28
18	106
19	0
26	3
27	13
28	13
29	11
30	1
31	2
32	0
35	1
37	4
38	32
39	46
40	3
41	17
42	4
43	19
44	22
45	6
46	1
47	1
49	2
50	29
51	31
52	17
53	8
54	2
55	12
56	3
57	10
58	0
59	0
60	2
61	4
62	16
63	89
64	53
65	32
66	3
67	2
68	1
69	5
70	3
71	6
73	2
74	6
75	18
76	21
77	58
78	156
79	13
80	3
81	3
82	3
83	4
84	5
85	3
86	2
87	2
88	1
89	14
90	10
91	36
92	15
93	7
94	2
95	3
96	1
97	4
98	2
99	2
100	0
101	2
102	17
103	148
104	999
105	93
106	4
107	1
109	1
110	1
111	3
112	1
113	2
115	4
116	2
117	16
118	2
119	19
120	2
121	3
122	0
123	1
125	1
126	1
127	1
128	3
129	3
130	1
131	1
135	1
137	1
139	2
140	0
141	3
143	45
144	3
145	43
146	3
149	2
150	0
151	1
152	8
153	7
154	2
155	3
156	1
157	3
163	3
164	1
165	8
166	3
167	11
168	4
169	2
171	17
172	4
173	15
174	3
176	0
177	1
178	2
179	2
180	0
181	11
182	2
183	3
184	0
185	3
193	0
194	1
195	16
196	251
197	41
198	3
199	0
223	0
224	1
225	0
273	0
274	4
275	150
276	27
277	150
278	24
279	2
283	0
287	0
288	0
289	0
368	0
370	0
446	18
447	3
448	35
449	7
450	18
451	3
452	0
