Mass Spectrum: 3,5-Pyrazolidinedione, 4-(dimethylamino)-1,2-diphenyl-
Formula: C17H17N3O2
CAS: 57488-07-0
Molecular weight: 295
m/z	intensity
39	70
42	560
44	160
51	110
57	780
64	110
77	540
85	999
91	130
92	80
93	100
105	100
119	80
183	170
252	180
267	50
295	90
