Mass Spectrum: 2-(2-Hydroxybenzyl-amino)propanoic acid
Formula: C10H13NO3
CAS: 57496-55-6
Molecular weight: 195
m/z	intensity
12	1
13	1
14	4
15	32
16	2
17	9
18	74
19	3
20	0
25	1
26	14
27	68
28	122
29	30
30	23
31	3
32	0
35	0
36	2
37	4
38	15
39	78
40	12
41	19
42	46
43	28
44	999
45	57
46	4
47	1
49	1
50	29
51	81
52	50
53	40
54	10
55	19
56	26
57	4
59	2
60	1
61	2
62	6
63	19
64	7
65	17
66	12
67	6
68	1
69	1
70	1
71	1
72	1
73	7
74	12
75	21
76	7
77	193
78	108
79	68
80	7
81	2
82	1
83	1
84	0
85	0
86	0
87	1
88	5
89	5
90	4
91	7
92	4
93	7
94	5
95	13
96	1
97	0
98	0
99	0
100	0
101	0
102	6
103	6
104	3
105	9
106	21
107	415
108	36
109	2
110	0
111	0
113	0
115	0
116	0
117	1
118	1
119	1
120	12
121	13
122	79
123	7
124	0
125	0
127	0
128	0
129	0
130	1
131	15
132	9
133	3
134	4
135	0
136	3
137	1
141	0
146	1
147	3
148	15
150	230
151	23
152	2
153	0
162	0
163	0
164	0
165	0
171	0
176	0
178	0
179	0
180	0
181	0
182	0
193	3
194	1
195	57
196	7
197	1
