Mass Spectrum: 2H-Isoindole-2-propanamide, 1,3-dihydro-N-(4-methylphenyl)-1,3-dioxo-
Formula: C18H16N2O3
CAS: 57500-75-1
Molecular weight: 308
m/z	intensity
12	1
14	3
15	14
16	3
17	9
18	39
19	1
20	4
26	9
27	78
28	67
29	12
30	6
31	17
32	3
37	2
38	7
39	44
40	10
41	15
42	26
43	11
44	14
45	7
46	3
48	1
49	4
50	70
51	77
52	33
53	26
54	7
55	153
56	20
57	2
62	4
63	15
64	8
65	31
66	7
67	2
68	1
70	6
71	1
73	2
74	13
75	26
76	102
77	190
78	40
79	51
80	8
81	1
87	1
88	1
89	11
90	12
91	31
92	6
93	4
96	1
101	2
102	36
103	15
104	85
105	61
106	273
107	999
108	87
109	3
110	2
116	3
117	7
118	7
119	4
120	11
121	1
128	2
129	11
130	79
131	9
132	21
133	75
134	7
135	1
144	1
145	4
146	6
147	14
148	14
149	15
150	1
154	3
158	1
160	601
161	63
162	7
172	2
173	29
174	12
175	3
200	1
202	135
203	18
204	2
218	1
235	0
236	0
263	5
264	1
291	0
306	0
308	95
309	19
310	2
