Mass Spectrum: 2-[.omega.-Cyclohexyloctyl]-1,3,4-trihydroxynaphthalene triacetate
Formula: C30H40O6
CAS: 57514-17-7
Molecular weight: 496
m/z	intensity
41	155
43	999
44	17
45	1
47	6
48	2
49	3
51	14
53	14
55	307
56	14
57	15
65	3
67	41
69	52
71	10
76	5
77	16
79	10
81	27
83	84
84	20
86	12
88	1
91	7
93	3
95	19
97	11
102	3
103	11
104	10
105	48
106	1
109	11
115	30
116	4
117	9
119	1
123	3
127	6
128	9
129	12
131	18
132	18
133	7
135	5
141	6
143	33
144	8
145	9
146	4
147	7
149	1
153	1
155	9
157	17
159	53
160	28
161	13
169	7
171	104
172	12
173	86
174	11
175	11
176	10
181	5
183	12
185	18
186	1
187	26
188	91
189	298
190	35
191	1
195	1
197	13
199	21
200	5
201	5
202	21
203	8
213	21
214	1
215	6
216	16
227	3
230	3
231	23
241	5
244	6
251	1
258	3
269	14
270	5
272	1
286	10
287	5
300	1
314	1
351	15
352	5
353	6
368	16
369	76
370	923
371	226
372	27
411	7
412	440
413	114
414	18
454	143
455	44
456	9
496	44
497	14
