Mass Spectrum: 1,2,3,4-Thiatriazole, 5-phenyl-, 3-oxide
Formula: C7H5N3OS
CAS: 57529-16-5
Molecular weight: 179
m/z	intensity
30	999
46	830
50	290
51	280
52	80
74	80
75	150
76	420
77	310
102	30
103	820
104	80
133	90
135	150
149	150
163	30
179	690
180	70
181	30
