Mass Spectrum: Salicylidene solanocapsine
Formula: C34H50N2O3
CAS: 57526-02-0
Molecular weight: 534
m/z	intensity
41	148
42	50
43	111
44	129
45	6
46	1
49	1
50	2
51	4
52	2
53	25
54	11
55	197
56	80
57	66
58	15
59	19
60	2
61	1
62	1
63	2
65	25
66	13
67	127
68	61
69	94
70	682
71	131
72	12
73	2
74	1
76	3
77	43
78	20
79	101
80	25
81	130
82	61
83	68
84	999
85	68
86	28
87	2
91	88
92	2
93	151
94	56
95	117
96	44
97	19
98	24
100	17
101	7
102	3
103	4
104	5
105	76
106	3
107	129
108	30
109	46
110	44
111	31
112	144
113	75
114	22
115	11
117	18
118	20
119	41
120	59
121	102
122	241
123	26
124	23
125	36
126	12
128	9
129	6
130	101
131	31
132	28
133	32
134	16
135	20
136	20
137	5
138	16
139	31
140	16
141	12
142	88
143	14
144	5
145	18
146	17
147	21
148	22
149	8
150	7
151	3
152	6
154	14
156	41
157	184
158	20
159	13
160	17
161	14
162	11
163	3
164	6
166	5
167	2
168	5
169	3
170	1
171	2
172	4
173	5
174	5
175	3
176	1
178	4
179	1
180	3
182	3
183	1
184	1
185	1
186	4
187	2
188	6
189	1
190	1
196	6
197	1
199	1
200	1
201	1
202	1
214	2
215	1
216	7
217	1
228	2
230	3
301	3
328	1
336	2
337	8
338	13
339	3
353	2
376	2
378	12
379	3
393	1
394	2
405	14
406	14
407	3
408	3
422	1
423	13
424	3
432	8
433	3
447	2
463	1
516	8
517	3
519	1
533	1
534	15
535	7
536	1
