Mass Spectrum: S-Tetrazine, 3-methyl-6-(2-thienyl)-
Formula: C7H6N4S
CAS: 57537-54-9
Molecular weight: 178
m/z	intensity
29	38
34	11
37	20
38	32
39	94
40	131
41	122
42	6
44	25
45	315
47	5
50	9
51	6
57	35
58	153
64	50
65	15
69	30
70	51
75	5
82	34
83	11
109	999
110	44
111	24
178	159
179	4
180	18
