Mass Spectrum: 1,3-Dioxolane-2-ethanol, 2-methyl-
Formula: C6H12O3
CAS: 5754-32-5
Molecular weight: 132
m/z	intensity
25	6
26	62
28	49
29	80
30	8
31	115
33	10
36	2
38	2
39	50
40	10
41	88
42	74
43	999
44	44
45	103
46	2
50	1
51	1
52	0
53	8
54	4
55	58
56	2
57	35
58	22
59	48
60	2
61	11
62	0
63	1
69	5
70	18
71	28
72	3
73	60
74	2
75	0
83	2
84	0
85	5
86	4
87	913
88	44
89	6
99	70
100	3
101	6
102	3
103	1
115	1
117	134
118	6
119	1
