Mass Spectrum: 4-(2-Hydroxyethyl)-2,2-dimethyl-1,3-dioxolane
Formula: C7H14O3
CAS: 5754-34-7
Molecular weight: 146
m/z	intensity
14	2
15	19
19	4
26	7
27	52
28	18
29	65
30	6
31	128
32	2
33	1
37	2
38	5
39	78
40	21
41	280
42	182
43	999
44	41
45	19
46	1
47	1
50	1
51	1
52	1
53	9
54	2
55	17
56	5
57	54
58	35
59	198
60	9
61	69
62	2
65	2
67	1
68	1
69	14
71	561
72	286
73	41
74	3
75	2
83	11
85	62
86	4
87	5
88	6
89	7
99	1
100	7
101	73
102	4
103	1
113	1
116	3
129	1
131	549
132	37
133	4
