Mass Spectrum: Thiophene-2-carboxylic acid, 5-ethylthio-4-formyl-
Formula: C8H8O3S2
CAS: 57555-46-1
Molecular weight: 216
m/z	intensity
33	18
34	21
35	21
36	18
37	84
38	112
39	168
40	40
41	17
43	37
44	94
45	573
46	31
47	32
48	5
49	14
50	22
51	25
52	10
53	66
55	59
56	29
57	109
58	90
59	114
60	40
61	43
62	8
63	9
64	26
65	24
66	14
67	35
69	999
70	322
71	568
72	47
73	32
74	6
75	4
76	26
77	64
78	15
79	8
80	30
81	132
82	147
83	72
84	83
85	83
86	36
87	47
88	81
89	17
90	10
91	4
92	6
93	14
94	4
95	10
96	8
97	42
98	36
99	40
100	12
101	22
102	17
103	113
104	10
105	23
106	2
107	2
108	10
109	32
110	29
111	91
112	49
113	93
114	475
115	166
116	110
117	19
118	8
119	1
120	1
121	8
122	4
123	1
124	4
126	133
127	42
128	17
129	12
130	5
131	32
132	4
133	3
134	1
135	1
137	26
138	7
139	27
140	11
141	33
142	78
143	60
144	14
145	8
146	1
147	2
148	0
149	0
150	0
151	1
153	30
154	184
155	217
156	33
157	36
158	15
159	76
160	70
161	11
162	6
163	1
165	22
166	3
167	3
168	8
169	29
170	8
171	45
173	41
174	4
175	3
176	0
177	0
178	1
181	29
182	151
183	814
184	89
185	62
187	915
188	103
189	80
190	9
191	3
192	0
197	50
198	38
199	33
200	8
201	34
202	3
203	3
204	0
205	0
211	1
212	5
216	756
217	73
218	67
219	7
220	2
