Mass Spectrum: 1-Nitroso-3,5-dinitro-hexahydro-1,3,5-triazine
Formula: C3H6N6O5
CAS: 5755-27-1
Molecular weight: 206
m/z	intensity
40	99
41	999
43	33
44	26
45	25
46	153
55	33
56	99
57	39
58	38
69	32
70	19
71	25
75	45
102	13
104	33
132	378
133	25
206	5
