Mass Spectrum: 1-Pentanamine, N-methyl-N-(1-methylethyl)-
Formula: C9H21N
CAS: 5756-49-0
Molecular weight: 143
m/z	intensity
41	190
42	220
43	260
44	999
45	20
55	30
56	150
57	40
58	350
59	10
70	100
71	40
72	80
84	50
85	20
86	950
87	50
98	20
100	10
112	70
126	20
128	370
129	30
141	10
142	10
143	60
