Mass Spectrum: Chola-5,22-dien-3-ol, (3.beta.,22Z)-
Formula: C24H38O
CAS: 57597-14-5
Molecular weight: 342
m/z	intensity
42	26
43	387
44	26
53	91
54	10
55	322
56	16
57	16
60	43
65	32
66	5
67	317
68	26
69	999
70	59
77	102
78	26
79	247
80	37
81	6
82	48
83	48
91	290
92	59
93	290
94	59
95	317
96	37
104	16
105	327
106	80
107	317
108	91
109	155
115	26
116	16
117	91
118	37
119	182
120	134
121	177
122	37
123	59
128	26
129	48
130	26
131	123
132	48
133	241
134	48
135	145
136	26
137	16
143	91
144	32
145	284
146	134
147	220
148	37
149	69
157	48
158	37
159	198
160	53
161	134
162	26
163	21
171	26
172	5
173	48
174	16
175	37
185	21
187	21
189	5
199	26
201	37
202	5
203	102
213	80
214	10
239	10
241	10
253	21
254	10
255	268
256	53
282	10
309	107
310	21
324	10
327	284
342	10
