Mass Spectrum: Chola-5,22-dien-3-ol, (3.beta.,22E)-
Formula: C24H38O
CAS: 57597-08-7
Molecular weight: 342
m/z	intensity
41	999
42	42
43	169
53	177
54	25
55	644
56	25
65	59
66	25
67	491
69	16
70	76
77	211
78	42
79	466
80	59
81	59
82	59
83	59
91	508
92	110
93	466
94	93
95	533
96	93
97	76
104	25
105	483
106	93
107	500
108	93
109	211
115	42
116	25
117	127
118	59
119	313
120	194
121	245
122	59
123	93
128	42
129	76
130	42
131	211
132	59
133	381
134	76
135	211
143	110
144	42
145	432
146	84
147	330
148	50
149	93
157	76
158	76
159	381
160	76
161	262
162	59
163	93
171	59
172	16
173	101
174	16
175	84
176	16
177	25
185	59
187	67
189	33
199	67
201	16
203	67
213	169
214	33
229	33
230	42
231	203
232	16
239	16
241	25
255	915
256	101
257	135
267	16
271	118
272	76
273	135
274	16
282	16
285	50
300	271
301	25
309	93
324	177
325	16
327	101
342	440
343	93
