Mass Spectrum: iso-Pentanal N-methyl-N-formylhydrazone
Formula: C7H14N2O
CAS: 57590-21-3
Molecular weight: 142
m/z	intensity
41	560
43	800
57	280
59	999
60	190
71	310
84	540
85	890
100	100
127	90
142	130
