Mass Spectrum: n-Pentanal N-methyl-N-formylhydrazone
Formula: C7H14N2O
CAS: 57590-20-2
Molecular weight: 142
m/z	intensity
41	340
43	500
57	250
59	730
60	190
67	80
69	210
71	250
84	390
85	999
100	480
113	80
142	160
