Mass Spectrum: n-Hexanal N-methyl-N-formylhydrazone
Formula: C8H16N2O
CAS: 57590-22-4
Molecular weight: 156
m/z	intensity
43	680
55	250
59	780
60	410
71	200
85	999
98	540
100	570
113	100
127	30
156	120
