Mass Spectrum: cis-Inositol
Formula: C6H12O6
CAS: 576-63-6
Molecular weight: 180
m/z	intensity
39	12
41	20
42	44
43	66
44	20
45	39
47	6
53	4
54	10
55	26
56	26
57	29
60	112
61	25
69	16
70	6
71	77
72	39
73	999
74	42
75	6
81	6
83	7
84	5
85	7
89	16
90	5
91	29
97	9
98	6
101	3
102	34
103	2
109	3
115	7
125	1
126	4
127	1
144	42
145	4
149	1
163	1
181	9
