Mass Spectrum: m-Fluorophenyl trifluoromethanesulfonate
Formula: C7H4F4O3S
CAS: 57606-65-2
Molecular weight: 244
m/z	intensity
38	60
39	91
50	60
63	99
64	49
69	999
75	49
81	70
95	109
111	269
114	168
180	249
244	350
