Mass Spectrum: Methylphenylphosphinic chloride
Formula: C7H8ClOP
CAS: 5761-97-7
Molecular weight: 174
m/z	intensity
26	5
27	72
29	10
31	0
33	7
35	17
36	65
38	11
39	106
41	10
44	3
45	32
46	4
47	332
48	6
49	10
50	235
51	650
52	40
53	4
56	12
57	16
58	0
60	0
61	9
62	23
63	47
64	9
65	88
66	7
67	2
68	12
69	30
70	4
71	0
73	10
74	74
75	52
76	44
77	999
78	85
79	3
80	9
81	25
82	5
83	16
84	1
85	5
86	1
87	2
89	15
90	3
91	851
92	86
93	6
94	28
95	30
96	17
97	31
98	2
99	9
104	1
105	2
107	46
108	8
109	30
110	3
111	13
112	15
113	1
114	4
117	0
120	2
121	26
122	2
123	6
124	23
125	17
126	2
137	10
138	2
139	857
140	61
141	3
143	25
144	0
145	8
158	10
159	369
160	22
161	119
162	8
173	4
174	666
175	49
176	225
177	14
178	0
