Mass Spectrum: Phosphinous chloride, bis(2,2-dimethylpropyl)-
Formula: C10H22ClP
CAS: 57620-66-3
Molecular weight: 208
m/z	intensity
26	49
27	181
28	36
29	320
30	9
31	5
32	1
33	1
34	0
35	2
36	21
37	3
38	8
39	148
40	28
41	446
42	49
43	999
44	14
45	33
46	2
47	4
48	2
49	2
50	10
51	12
52	4
53	39
54	10
55	232
56	129
57	618
58	27
59	20
60	2
61	14
62	20
63	3
64	1
65	2
66	7
67	8
68	3
69	67
70	67
71	888
72	47
73	20
74	4
75	4
76	2
77	2
78	14
79	1
80	3
81	20
82	3
83	15
84	2
85	9
87	7
88	1
89	2
91	1
93	2
94	2
95	5
96	476
97	20
98	168
99	4
101	10
102	3
103	5
105	1
107	2
108	1
109	1
110	6
111	0
112	2
113	8
115	2
116	3
117	7
118	2
121	2
122	2
123	6
124	1
125	1
127	5
128	1
129	1
133	0
135	0
136	1
137	12
138	3
139	9
140	3
141	1
142	4
143	1
145	0
151	3
152	89
153	7
154	32
155	1
157	2
159	2
172	3
173	3
174	2
175	3
177	0
180	0
183	2
190	0
193	205
194	20
195	68
196	8
198	3
207	1
208	116
209	9
210	35
211	3
