Mass Spectrum: Thiazole, 4,5-dihydro-2-(3-phenyl-2-propenyl)thio-
Formula: C12H13NS2
CAS: 57620-95-8
Molecular weight: 235
m/z	intensity
26	9
27	40
29	12
30	5
33	3
34	5
37	4
38	13
39	127
40	14
41	36
42	8
43	10
44	20
45	101
46	28
47	13
48	2
49	2
50	35
51	107
52	26
53	10
54	5
55	15
56	5
57	10
58	25
59	74
60	54
61	37
62	24
63	73
64	18
65	98
66	8
67	3
68	2
69	12
70	4
71	15
72	67
73	8
74	17
75	21
76	24
77	96
78	41
79	17
80	3
81	5
82	3
83	3
84	2
85	6
86	9
87	13
88	19
89	68
90	19
91	300
92	32
93	4
94	2
95	4
96	2
97	3
98	8
99	3
100	2
101	16
102	45
103	47
104	23
105	60
106	9
107	2
109	2
110	3
112	5
113	25
114	27
115	627
116	312
117	999
118	151
119	19
120	52
121	37
122	9
123	2
124	2
125	3
126	7
127	2
128	9
129	7
130	14
131	34
132	10
133	44
134	24
135	8
136	2
137	2
140	2
141	5
142	14
143	15
144	63
145	7
146	8
147	118
148	100
149	47
150	7
151	3
152	2
154	2
155	15
156	11
157	5
158	8
159	4
160	21
161	8
162	4
163	2
164	4
167	2
168	4
169	6
170	2
172	2
173	5
174	78
175	37
176	31
177	8
178	3
179	2
185	3
186	4
187	3
188	145
189	26
190	52
191	9
192	8
193	2
201	7
202	163
203	25
204	10
205	4
206	25
207	23
208	7
209	2
218	3
219	5
220	547
221	98
222	66
223	10
224	2
233	2
234	29
235	497
236	88
237	58
238	8
239	2
