Mass Spectrum: 3-Hydroxypyrrolidine-1,2-dicarboxylic acid, 1-benzyl ester
Formula: C13H15NO5
CAS: 57621-07-5
Molecular weight: 265
m/z	intensity
41	69
42	24
43	25
44	144
45	28
48	8
49	7
50	21
51	37
52	15
53	6
54	7
55	17
56	40
57	10
58	21
59	0
60	1
61	3
62	11
63	37
64	24
65	135
66	13
67	19
68	158
69	18
70	6
71	0
73	6
74	5
75	3
76	4
77	43
78	11
79	37
80	7
81	2
82	1
83	0
84	11
85	8
86	55
87	8
88	1
89	45
90	6
91	999
92	93
93	6
94	4
95	0
96	0
99	0
100	1
101	1
102	1
104	4
105	9
106	4
107	29
108	39
109	3
110	2
111	2
112	8
113	2
114	7
115	2
117	1
118	1
120	0
121	0
122	1
127	0
128	3
129	0
130	191
131	13
132	3
133	1
146	1
154	0
156	6
157	27
158	40
159	8
160	2
165	3
167	2
172	0
176	92
177	11
178	1
179	1
180	3
181	5
182	3
184	2
201	3
202	3
203	4
204	0
219	2
220	44
221	11
222	6
223	0
247	4
248	0
264	2
265	6
266	6
