Mass Spectrum: 3,6,9,12,15,18-Hexaoxabicyclo[18.3.1]tetracosa-1(24),20,22-triene
Formula: C18H28O6
CAS: 57624-51-8
Molecular weight: 340
m/z	intensity
27	34
28	46
29	59
30	13
31	46
39	6
41	26
42	19
43	142
44	78
45	999
46	22
47	2
51	6
52	15
53	2
55	16
56	6
57	30
58	53
59	75
60	5
61	3
63	0
65	5
66	1
67	5
68	1
69	9
70	17
71	194
72	42
73	101
74	37
75	15
76	1
77	39
78	63
79	27
80	0
81	16
84	16
85	22
86	12
87	106
88	63
89	601
90	77
91	38
92	9
93	4
95	5
96	13
97	10
98	2
99	6
100	1
101	18
102	18
103	97
104	417
105	268
106	29
107	10
108	2
109	3
110	2
111	6
112	0
113	4
114	4
115	8
116	7
117	110
118	117
119	161
120	38
121	31
122	2
123	4
124	0
125	4
126	0
127	1
128	0
129	9
130	9
131	43
132	23
133	520
134	50
135	44
136	9
137	4
138	0
140	0
142	3
143	1
144	5
145	9
146	14
147	20
148	17
149	35
150	14
151	20
155	3
158	4
159	5
160	8
161	9
162	46
163	43
164	19
175	11
176	9
177	173
178	33
179	31
180	4
181	4
183	10
184	1
186	0
189	0
190	6
191	8
192	2
193	16
194	12
195	29
196	1
197	0
203	1
204	6
205	6
206	3
207	10
208	16
209	11
210	5
211	2
219	3
220	4
221	103
222	20
223	14
224	2
225	2
233	0
235	4
236	3
237	8
238	2
239	12
240	0
243	2
244	3
249	2
250	2
251	3
252	5
253	16
254	5
257	1
258	4
261	1
262	0
263	0
264	2
265	5
266	5
267	7
268	1
272	2
280	0
281	6
296	9
297	2
309	2
310	0
311	0
340	153
341	40
342	6
343	1
