Mass Spectrum: 1,3,2-Dioxaborolane, 2-ethyl-4,5-dimethyl-
Formula: C6H13BO2
CAS: 57633-64-4
Molecular weight: 128
m/z	intensity
26	44
27	152
28	203
29	180
30	4
31	8
32	8
36	2
37	6
38	4
39	47
40	10
41	63
42	27
43	97
44	23
45	127
46	3
47	3
49	0
50	4
51	4
52	5
53	27
54	58
55	275
56	186
57	501
58	12
59	2
63	1
65	2
66	0
67	3
68	5
69	15
70	10
71	39
72	18
73	94
74	4
75	2
76	1
77	1
78	0
79	0
81	1
82	6
83	76
84	269
85	85
86	5
87	1
88	1
90	1
91	4
92	1
96	1
97	2
98	8
99	30
100	5
101	2
110	2
111	5
112	247
113	999
114	47
115	5
116	0
121	0
124	3
125	7
126	5
127	34
128	51
129	7
130	0
