Mass Spectrum: 1,3,2-Dioxaborinane, 2-ethyl-4-methyl-
Formula: C6H13BO2
CAS: 57633-65-5
Molecular weight: 128
m/z	intensity
26	16
27	66
28	118
29	143
30	2
31	8
32	0
38	1
39	41
40	8
41	69
42	58
43	232
44	43
45	84
46	0
50	1
51	0
52	1
53	14
54	65
55	421
56	194
57	375
58	16
59	15
64	0
65	1
67	3
68	4
69	10
70	5
71	25
72	94
73	25
74	0
77	0
78	0
81	4
82	33
83	133
84	125
85	97
86	6
87	4
91	2
96	1
97	3
98	7
99	19
100	5
101	4
103	0
104	0
105	0
108	6
109	2
110	9
111	16
112	261
113	999
114	54
115	4
121	0
124	0
125	2
126	4
127	22
128	28
129	4
