Mass Spectrum: C6H5CH(OH)CH2C(O)OC2H5
Formula: C11H14O3
CAS: 5764-85-2
Molecular weight: 194
m/z	intensity
25	2
26	16
27	89
29	76
30	7
31	90
33	1
36	1
37	10
38	12
39	50
40	6
41	20
42	122
43	207
44	11
45	95
46	21
47	3
49	7
50	84
51	211
52	55
53	22
54	1
55	3
56	1
57	3
59	3
60	163
61	126
62	12
63	20
64	4
65	24
66	3
67	1
68	0
69	8
70	91
71	19
72	1
73	22
74	29
75	20
76	27
77	608
78	156
79	552
80	35
81	1
83	1
84	0
85	1
86	2
87	6
88	236
89	29
90	5
91	51
92	11
93	1
94	1
95	1
96	0
97	0
99	1
101	2
102	17
103	90
104	74
105	841
106	448
107	999
108	75
109	3
111	0
112	0
113	0
115	1
116	1
117	1
118	1
119	5
120	174
121	19
122	1
123	2
124	0
125	0
128	0
130	5
131	114
132	15
133	3
134	0
135	3
136	0
137	1
138	2
139	1
141	0
146	1
147	84
148	43
149	50
150	5
151	0
158	2
159	0
161	2
163	0
165	31
166	3
167	0
169	0
175	4
176	35
177	4
178	1
193	13
194	333
195	37
196	4
