Mass Spectrum: Germacyclopent-3-ene, 1,1-dichloro-3,4-dimethyl-
Formula: C6H10Cl2Ge
CAS: 5764-64-7
Molecular weight: 226
m/z	intensity
33	3
34	6
35	6
36	28
37	7
38	27
39	210
40	119
41	179
42	39
43	44
44	34
45	4
46	0
50	10
51	23
52	16
53	56
54	130
55	41
56	15
57	26
58	2
59	1
60	5
61	1
62	2
63	7
64	3
65	38
67	715
68	38
69	15
70	15
71	17
73	17
74	9
75	2
76	3
77	14
78	3
79	34
82	999
83	67
84	9
85	8
87	5
88	6
89	5
90	0
91	5
92	1
93	2
95	9
96	3
97	11
98	6
99	7
100	1
101	4
103	0
105	33
107	49
108	15
109	65
110	8
111	34
112	9
113	12
114	2
115	3
116	0
117	0
118	0
119	2
120	0
121	2
122	0
123	2
124	1
125	2
126	1
127	1
128	2
129	2
130	0
131	0
132	0
133	0
135	1
136	0
137	1
138	0
139	2
140	3
142	6
143	2
144	8
145	3
146	3
148	2
149	11
150	1
151	1
152	1
153	0
154	0
155	0
156	1
157	1
158	0
165	0
167	3
171	3
178	0
185	0
187	2
188	0
189	4
190	1
191	5
192	1
193	1
221	0
222	9
223	2
224	20
225	6
226	26
227	4
228	15
230	5
