Mass Spectrum: Imidazole, 1,4-dimethyl-5-nitro-
Formula: C5H7N3O2
CAS: 57658-79-4
Molecular weight: 141
m/z	intensity
41	258
42	489
43	999
44	3
45	31
46	25
47	3
48	12
49	1
50	8
51	46
52	111
53	63
54	53
55	24
56	31
57	8
58	11
59	2
60	3
61	1
62	2
63	8
64	24
65	39
66	196
67	330
68	247
69	250
70	16
71	4
72	1
73	2
74	2
75	2
76	4
77	21
78	4
79	14
80	36
81	33
82	23
83	14
84	21
85	4
86	1
87	2
88	1
89	2
90	2
91	18
92	7
93	11
94	73
95	39
96	8
97	48
98	11
99	3
100	1
101	1
102	1
103	1
104	0
105	38
106	5
107	4
108	12
109	3
110	1
111	125
112	24
113	3
114	1
115	2
116	1
117	1
118	0
119	0
120	0
121	1
122	1
124	157
125	24
126	3
141	630
142	90
143	6
144	1
