Mass Spectrum: Acetamide, 2-(1-methyl-3-methylthioindol-2-yl)-N-phenyl-
Formula: C18H18N2OS
CAS: 57666-09-8
Molecular weight: 310
m/z	intensity
33	5
34	1
36	2
37	24
38	159
39	664
40	81
41	131
42	61
43	35
45	118
46	26
47	32
48	9
49	12
50	156
51	462
52	130
53	32
54	34
55	49
56	48
57	24
59	30
61	28
62	81
63	305
64	277
65	930
66	163
67	21
69	46
70	22
71	24
72	13
74	70
75	86
76	129
77	999
78	92
80	13
81	7
82	9
83	9
84	3
85	4
86	10
87	26
88	29
89	102
90	65
91	256
92	461
93	154
94	29
95	10
96	2
97	3
98	6
99	5
100	11
101	40
102	82
103	56
104	24
105	7
106	11
108	8
109	4
110	2
111	3
112	3
113	20
114	33
115	231
116	97
117	71
118	20
119	63
120	328
121	30
122	6
123	2
124	1
125	1
126	4
127	21
128	77
129	83
130	103
131	58
132	30
133	18
134	33
135	6
136	4
137	1
138	1
139	3
140	23
141	24
142	71
143	125
144	463
145	208
146	143
147	33
148	9
150	2
283	0
295	1
299	0
301	0
306	0
308	1
310	43
311	8
312	2
313	0
