Mass Spectrum: .alpha.-Aminooxy-propionic acid, ethyl ester
Formula: C5H11NO3
CAS: 5766-86-9
Molecular weight: 133
m/z	intensity
30	39
33	166
42	342
43	404
44	173
45	353
46	23
55	235
56	89
57	23
58	21
59	95
60	999
61	34
62	16
73	355
74	110
75	18
87	73
90	25
100	10
101	238
102	93
103	12
105	10
117	12
118	14
133	384
134	20
