Mass Spectrum: 5.alpha.-Pregn-16-en-20-one, 3.beta.,12.alpha.-dihydroxy-, diacetate
Formula: C25H36O5
CAS: 5767-82-8
Molecular weight: 416
m/z	intensity
26	1
27	32
28	14
29	42
30	2
31	5
36	1
39	14
40	3
41	81
43	999
44	31
45	16
51	4
52	3
53	25
54	6
55	94
56	7
57	17
58	2
59	3
60	4
61	18
62	2
63	2
64	2
65	14
66	7
67	85
68	11
69	36
70	5
71	10
72	2
73	4
74	1
75	3
76	1
77	44
78	12
79	93
80	22
81	120
82	13
83	22
84	8
85	12
86	3
87	4
88	2
89	2
90	2
91	94
92	21
93	105
94	27
95	71
96	11
97	16
98	8
99	8
100	3
101	3
102	2
103	10
104	8
105	102
106	42
107	124
108	44
109	83
110	12
111	12
112	3
113	5
114	3
115	13
116	8
117	31
118	15
119	66
120	21
121	59
122	49
123	81
124	20
125	9
126	3
127	5
128	10
129	21
130	11
131	45
132	15
133	71
134	35
135	136
136	48
137	40
138	9
139	6
140	3
141	9
142	8
143	50
144	18
145	73
146	30
147	153
148	88
149	56
150	26
151	22
152	7
153	5
154	3
155	11
156	7
157	46
158	13
159	51
160	36
161	51
162	24
163	21
164	4
165	5
166	3
167	4
168	3
169	10
170	7
171	32
172	10
173	37
174	15
175	21
176	6
177	9
178	3
179	3
180	2
181	4
182	2
183	10
184	5
185	23
186	18
187	39
188	31
189	32
190	11
191	8
192	3
193	3
194	2
195	5
196	2
197	13
198	5
199	17
200	12
201	18
202	14
203	11
204	6
205	9
206	4
207	7
208	2
209	3
210	2
211	10
212	5
213	13
214	6
215	8
216	3
217	4
218	2
219	2
220	2
221	3
222	2
223	4
224	2
225	7
226	4
227	7
228	4
229	4
230	3
231	6
232	4
233	3
234	3
235	3
236	2
237	7
238	4
239	12
240	4
241	6
242	4
243	3
244	3
245	6
246	13
247	9
248	7
249	4
250	2
251	8
252	6
253	102
254	27
255	12
256	3
257	3
258	2
259	4
260	3
261	2
262	2
263	6
264	2
265	2
266	2
267	5
268	3
269	4
270	3
271	10
272	6
273	3
274	3
275	4
276	4
277	4
278	4
279	5
280	3
281	80
282	20
283	4
284	2
285	4
286	2
287	2
288	3
289	1
290	2
291	4
292	2
293	2
294	3
295	18
296	64
297	24
298	8
299	10
300	3
301	2
302	1
303	1
304	2
305	2
306	1
311	5
312	7
313	109
314	50
316	12
317	2
318	2
319	1
320	1
323	2
324	1
325	2
326	7
327	5
328	4
329	4
330	4
331	24
332	7
333	2
338	3
339	3
341	88
342	24
343	5
344	3
345	3
346	2
347	2
348	1
349	1
350	1
351	1
354	8
355	16
356	290
357	136
358	25
359	43
360	11
361	2
369	2
371	4
372	6
373	86
374	39
375	8
376	2
382	1
387	2
401	1
416	13
417	4
