Mass Spectrum: 3-Isobutyldihydropyrazin-2-one
Formula: C8H12N2O
CAS: 57674-15-4
Molecular weight: 152
m/z	intensity
26	40
27	206
28	226
29	46
30	86
36	3
37	6
38	14
39	114
40	83
41	263
42	89
43	274
44	429
45	9
50	6
51	14
52	31
53	46
54	86
55	51
56	11
57	20
59	6
60	6
61	6
64	3
65	9
66	11
67	17
68	43
69	20
70	14
72	3
73	11
77	3
78	6
79	9
80	17
81	189
82	160
83	9
84	14
85	3
86	154
87	9
92	6
93	6
94	6
95	11
96	9
97	6
106	3
107	11
108	9
109	37
110	999
111	66
112	6
113	3
119	9
123	11
124	11
135	9
137	237
138	20
141	14
149	3
151	23
152	86
153	9
154	6
