Mass Spectrum: 2,6,10-Dodecatrien-1-ol, 3,7,11-trimethyl-9-(phenylsulfonyl)-, (E,E)-
Formula: C21H30O3S
CAS: 57683-67-7
Molecular weight: 362
m/z	intensity
55	670
67	360
69	880
77	500
78	370
79	430
93	999
95	380
105	350
107	600
109	480
119	280
121	330
133	180
135	680
136	130
147	230
220	50
221	40
