Mass Spectrum: 2,6,10-Tetradecatrienedioic acid, 3,7,11-trimethyl-13-(2-methyl-1-propenyl)-13-(phenylsulfonyl)-, dimethyl ester, (E,E,E)-
Formula: C29H40O6S
CAS: 57683-69-9
Molecular weight: 516
m/z	intensity
69	400
77	860
79	840
81	830
82	270
83	290
85	240
93	930
95	720
105	710
107	999
109	440
119	650
121	999
125	370
133	830
135	530
147	330
149	300
151	350
161	610
163	220
198	230
201	280
311	480
343	340
375	530
