Mass Spectrum: 3(4H)-Phenanthrenone, 4a,4b,5,6,7,8,8a,9,10,10a-decahydro-4b,8,8-trimethyl-, [4aS-(4a.alpha.,4b.beta.,8a.alpha.,10a.beta.)]-
Formula: C17H26O
CAS: 57684-12-5
Molecular weight: 246
m/z	intensity
55	540
69	600
81	570
95	500
107	590
108	280
109	999
122	540
123	770
133	350
149	150
161	350
176	150
190	90
203	130
218	90
231	280
246	740
