Mass Spectrum: Cyclopropanecarboxylic acid, 2,2-dimethyl-3-(2-methyl-1-propenyl)-, 2-methyl-4-oxo-3-(1,3-pentadienyl)-2-cyclopenten-1-yl ester
Formula: C21H28O3
CAS: 5768-81-0
Molecular weight: 328
m/z	intensity
26	11
27	109
29	100
39	148
41	418
42	28
43	247
50	13
51	45
52	25
53	201
54	21
55	199
56	19
57	45
59	10
63	18
65	69
66	25
67	107
68	20
69	105
70	16
71	16
73	15
77	137
78	45
79	114
80	23
81	287
82	38
83	54
84	14
85	11
91	259
92	40
93	102
94	19
95	60
96	18
97	17
103	35
104	12
105	205
106	26
107	71
108	32
109	75
110	15
111	11
115	56
116	30
117	119
118	47
119	61
120	12
121	65
122	18
123	999
124	110
125	21
127	12
128	23
129	13
131	45
132	30
133	954
134	121
135	25
143	16
145	67
146	43
147	26
149	11
151	21
153	19
159	35
160	103
161	998
162	313
163	35
167	21
168	20
207	23
218	13
328	110
329	26
