Mass Spectrum: Benzotriazole, 1-dibenzylaminomethyl-
Formula: C21H20N4
CAS: 57684-32-9
Molecular weight: 328
m/z	intensity
37	6
38	13
39	38
40	6
41	16
42	25
43	3
44	2
45	1
49	0
50	7
51	23
52	17
53	1
55	1
57	1
60	0
61	2
62	9
63	51
64	48
65	86
66	3
69	0
70	1
71	0
74	0
75	2
76	5
77	72
78	12
79	6
80	0
83	0
87	1
88	1
89	15
90	27
91	999
92	91
93	4
97	0
102	1
103	2
104	23
105	9
106	47
107	6
112	1
115	0
116	1
117	7
118	92
119	68
120	18
121	3
125	0
127	1
128	0
129	1
130	0
131	2
132	52
133	5
134	10
135	1
139	0
149	0
151	1
152	5
153	1
154	0
159	0
164	0
165	5
166	3
167	2
168	0
171	2
178	1
179	3
180	12
181	42
182	8
192	0
193	1
194	5
195	4
196	13
197	14
198	2
206	0
207	1
208	28
209	345
210	857
211	155
212	13
221	0
222	0
237	0
243	0
244	0
246	0
250	20
251	12
252	2
253	0
254	0
