Mass Spectrum: 3,7-Octadiene-1,1,8-tricarboxylic acid, 3,7-dimethyl-, trimethyl ester, (E,E)-
Formula: C16H24O6
CAS: 57683-64-4
Molecular weight: 312
m/z	intensity
59	400
79	850
82	800
107	999
114	370
121	600
135	960
139	470
145	220
148	370
149	300
161	130
168	180
180	180
181	200
199	500
249	180
252	200
280	300
281	150
312	20
