Mass Spectrum: 2(3H)-Furanone, 5-(acetyloxy)dihydro-5-methyl-
Formula: C7H10O4
CAS: 57681-51-3
Molecular weight: 158
m/z	intensity
25	4
26	44
27	111
28	210
29	37
30	2
31	6
37	5
38	8
39	33
40	6
41	20
42	103
43	999
44	47
45	34
46	1
49	3
50	9
51	10
52	4
53	17
54	12
55	102
56	120
57	45
58	4
59	2
60	10
61	25
62	1
65	1
66	1
67	2
68	2
69	6
70	19
71	178
72	54
73	14
74	3
75	3
77	1
78	1
79	2
80	1
81	22
82	3
83	3
84	1
85	2
86	2
87	3
88	16
89	2
90	1
91	2
92	1
93	2
94	2
95	2
96	2
97	5
98	74
99	718
100	69
101	28
102	2
103	29
104	2
105	1
114	14
115	4
116	7
117	2
141	1
143	4
158	1
