Mass Spectrum: 5-Aza-2,8-dioxa-1-.lambda.5-phosphacyclo[3.3.0]octane, 1-phenyl-1,2-dihydro-
Formula: C10H14NO2P
CAS: 57680-64-5
Molecular weight: 211
m/z	intensity
26	6
27	65
28	10
29	126
30	95
31	21
38	2
39	40
40	11
41	92
42	187
43	136
44	39
45	16
46	0
47	266
48	14
49	11
50	56
51	162
52	30
53	1
54	61
55	83
56	576
57	315
58	38
59	50
60	17
61	0
62	3
63	23
64	0
65	67
66	5
67	0
68	180
69	999
70	405
71	41
72	16
73	0
74	47
75	83
76	42
77	222
78	104
79	154
80	35
81	35
82	4
83	53
85	0
86	43
88	0
89	0
90	39
91	117
92	65
93	0
94	10
95	21
96	11
97	0
103	73
104	81
105	56
106	29
107	69
108	57
109	121
110	31
111	0
117	0
118	7
119	42
120	15
121	1
122	12
123	1
124	92
125	466
126	140
127	33
132	8
133	6
134	586
135	44
136	7
137	11
139	15
140	17
141	75
142	143
143	61
144	0
149	0
150	0
151	8
152	50
153	592
154	119
155	66
156	63
157	43
166	18
167	23
168	23
169	15
170	48
180	103
181	117
182	92
183	475
184	55
185	0
192	1
196	53
197	3
210	120
211	145
212	33
