Mass Spectrum: Perfluoro-(1,4-dimethyl-2,5-dioxa-octylcyanide)
Formula: C9F17NO2
CAS: 57697-79-7
Molecular weight: 477
m/z	intensity
31	119
47	49
50	59
69	999
76	279
97	269
100	231
119	299
126	854
142	98
147	100
150	98
169	985
170	39
176	59
192	280
213	40
264	39
292	60
335	139
358	59
458	20
