Mass Spectrum: Androst-4-ene-3,17-dione, 11-[[dimethyl(pentafluorophenyl)silyl]oxy]-, bis(O-methyloxime), (11.beta.)-
Formula: C29H37F5N2O3Si
CAS: 57691-90-4
Molecular weight: 584
m/z	intensity
41	270
43	90
45	90
55	170
57	200
65	90
67	190
73	190
75	390
77	999
79	440
81	240
91	380
93	320
105	280
117	230
118	190
119	240
120	260
125	590
131	170
134	150
143	120
144	130
145	130
146	140
149	140
151	330
152	290
153	170
158	140
159	140
160	140
170	80
173	100
176	120
191	410
221	110
222	90
224	80
225	70
238	70
251	30
255	40
264	80
279	220
295	310
310	260
311	420
315	70
327	80
329	50
342	140
373	20
386	60
444	30
507	20
522	30
538	30
553	40
569	40
584	340
585	120
586	30
