Mass Spectrum: Benzene, 1-bromo-2-nitro-
Formula: C6H4BrNO2
CAS: 577-19-5
Molecular weight: 201
m/z	intensity
25	4
26	23
27	28
28	14
29	4
30	441
31	4
36	8
37	74
38	113
39	79
40	6
41	6
43	3
44	4
46	18
48	3
49	53
50	754
51	118
52	11
53	10
55	5
57	4
60	5
61	24
62	32
63	108
64	84
65	11
66	5
67	4
69	3
72	4
73	50
74	258
75	999
76	821
77	55
78	22
79	15
80	8
81	15
82	9
87	3
88	4
90	7
91	4
92	102
93	9
94	11
95	9
104	3
105	9
106	3
107	8
108	3
116	4
117	20
118	5
119	22
122	26
123	3
128	10
129	28
130	12
131	25
138	3
143	286
144	19
145	281
146	17
154	4
155	542
156	39
157	509
158	35
171	181
172	15
173	183
174	12
185	12
187	11
201	547
202	38
203	531
204	39
205	3
