Mass Spectrum: Hydantoin, 1-benzoyl-2-thio-
Formula: C10H8N2O2S
CAS: 577-47-9
Molecular weight: 220
m/z	intensity
17	1
18	3
26	1
27	8
28	17
29	3
30	1
32	11
34	1
37	1
38	4
39	7
40	1
41	1
42	3
43	3
44	6
45	5
46	1
49	1
50	28
51	89
52	7
53	2
54	1
55	7
56	9
57	1
58	7
59	54
60	7
61	4
62	2
63	4
64	1
65	4
66	1
69	3
70	1
71	3
72	4
73	2
74	9
75	10
76	26
77	462
78	34
79	1
81	1
82	1
83	1
84	1
86	4
88	3
89	2
90	3
91	1
96	8
97	2
98	7
100	1
102	1
103	34
104	8
105	999
106	86
107	5
108	2
109	4
110	5
116	26
117	22
118	3
121	2
122	27
123	2
131	1
132	1
133	3
136	1
137	1
150	1
161	64
162	8
163	1
164	2
187	1
191	6
192	9
193	1
204	1
219	3
220	500
221	63
222	27
223	3
