Mass Spectrum: 1-[1-(2-Fluorenyl)ethylidene]semicarbazide
Formula: C16H15N3O
CAS: 57700-24-0
Molecular weight: 265
m/z	intensity
33	7
34	14
36	32
37	15
38	25
39	999
41	76
42	299
43	654
45	15
46	5
48	4
50	48
51	78
52	17
54	9
55	38
56	42
57	124
58	6
60	10
61	16
62	29
63	145
65	25
67	9
68	14
69	59
70	31
71	16
72	6
74	68
75	75
76	32
77	31
78	9
79	6
81	136
82	93
84	21
85	13
86	23
87	61
88	24
89	65
90	23
91	11
92	5
94	37
95	26
96	25
97	32
99	32
100	10
101	10
102	16
103	43
105	9
107	4
109	6
110	19
111	79
113	35
115	84
116	9
117	3
119	4
120	4
121	7
122	5
123	7
124	3
125	8
126	15
127	12
128	9
129	6
131	3
132	2
133	3
134	5
135	10
136	7
137	17
139	100
140	11
141	5
143	2
145	4
147	4
149	9
150	22
151	28
152	81
153	48
154	9
155	2
156	1
157	3
159	3
160	5
161	15
163	248
164	222
165	688
166	201
167	22
168	3
171	9
172	2
174	5
175	7
176	38
178	48
179	57
180	91
181	29
182	6
183	2
184	3
185	4
186	15
187	24
189	156
190	184
191	261
192	214
193	237
194	37
195	9
197	2
201	1
202	3
203	9
204	24
205	43
206	67
207	84
208	134
209	24
210	1
216	3
217	3
218	6
219	13
221	438
222	118
223	14
224	1
235	2
246	1
247	25
248	35
249	7
250	4
251	2
264	10
265	264
266	47
267	6
