Mass Spectrum: 17.beta.-Estradiol, 2TBDMS derivative
Formula: C30H52O2Si2
CAS: 57711-41-8
Molecular weight: 500
m/z	intensity
27	3
29	21
31	2
38	1
39	9
40	2
41	69
42	4
43	22
45	33
46	2
47	16
48	1
49	1
50	1
51	1
52	1
53	12
54	2
55	70
56	14
57	87
58	24
59	169
60	16
61	32
62	2
63	2
65	6
66	2
67	74
68	5
69	20
70	2
71	4
73	999
74	92
75	895
76	65
77	55
78	5
79	63
80	7
81	119
82	9
83	10
84	1
85	27
86	4
87	8
88	1
89	10
90	1
91	84
92	10
93	114
94	13
95	93
96	7
97	9
98	2
99	29
100	6
101	34
102	6
103	17
104	5
105	48
106	6
107	88
108	14
109	70
110	7
111	5
112	1
113	8
114	5
115	119
116	22
117	29
118	5
119	27
120	6
121	26
122	2
123	4
124	1
125	2
126	2
127	25
128	47
129	53
130	11
131	24
132	7
133	74
134	15
135	123
136	14
137	7
138	3
139	4
140	4
141	45
142	18
143	24
144	9
145	40
146	7
147	156
148	25
149	37
150	6
151	19
152	10
153	15
154	9
155	63
156	10
157	16
158	4
159	33
160	5
161	46
162	11
163	225
164	46
165	52
166	13
167	14
168	5
169	15
170	4
171	24
172	4
173	12
174	3
175	19
176	9
177	40
178	15
179	25
180	7
181	12
182	4
183	13
184	4
185	27
186	6
187	30
188	11
189	81
190	21
191	81
192	17
193	121
195	8
196	3
197	7
198	2
199	22
200	11
201	58
202	20
203	70
204	25
205	46
206	9
207	7
208	2
209	5
210	2
211	6
212	2
213	16
214	14
215	113
216	29
217	73
218	20
219	28
220	6
221	16
222	7
223	9
224	2
225	7
226	2
227	11
228	6
229	32
230	10
231	22
232	5
233	7
234	2
235	12
236	4
237	13
238	4
239	37
240	11
241	17
242	6
243	13
244	5
245	6
246	2
247	78
248	15
249	7
250	2
251	7
252	2
253	17
254	6
255	19
256	6
257	13
258	4
259	12
260	7
261	10
262	2
263	4
264	1
265	4
266	2
267	10
268	4
269	15
270	7
271	123
272	31
273	126
274	33
275	12
276	2
277	3
278	1
279	4
280	1
281	6
282	4
283	11
284	5
285	12
286	5
287	10
288	3
289	4
290	1
291	4
292	1
293	2
294	1
295	33
296	9
297	14
298	4
299	9
300	3
301	2
302	1
303	1
305	1
306	1
307	2
308	1
309	15
310	8
311	100
312	34
313	23
314	7
315	2
316	1
317	1
321	13
322	4
323	3
324	1
325	20
326	8
327	66
328	23
329	8
330	2
331	1
333	2
335	3
336	1
337	2
338	1
339	5
340	4
341	5
342	1
343	1
345	2
346	1
347	26
348	8
349	4
350	1
351	4
352	2
353	25
354	7
355	2
356	1
357	1
361	2
362	1
364	1
365	5
367	653
368	200
369	67
370	14
371	3
372	1
373	1
383	1
385	10
386	3
387	10
388	4
389	1
397	1
399	6
400	2
401	2
402	1
411	1
413	1
415	1
416	1
423	1
425	3
426	1
427	3
428	1
429	1
441	6
443	513
444	196
445	70
446	15
447	2
483	1
485	21
486	9
487	3
488	1
498	3
500	264
501	112
502	39
503	9
504	2
