Mass Spectrum: Androst-4-ene-3,17-diol, (3.beta.,17.beta.)-, 2TBDMS derivative
Formula: C31H58O2Si2
CAS: 57711-49-6
Molecular weight: 518
m/z	intensity
26	2
27	6
29	16
30	2
31	1
37	0
38	2
39	13
41	35
42	9
43	15
45	14
47	10
50	0
51	2
53	6
54	2
55	49
56	5
57	23
58	9
59	53
60	5
61	14
62	1
63	2
64	2
65	4
66	3
67	53
68	4
69	18
70	3
71	2
72	3
73	401
74	39
75	999
76	68
77	47
78	5
79	43
80	8
81	86
82	6
83	18
84	2
85	12
86	2
87	3
88	1
89	10
90	1
91	56
92	9
93	69
94	6
95	53
96	4
97	3
98	2
99	14
100	6
101	24
102	5
103	14
104	6
105	75
106	11
107	61
108	9
109	35
110	4
111	3
113	5
115	39
116	10
117	38
118	9
119	42
120	8
121	50
122	7
123	6
124	1
125	2
126	1
127	4
128	8
129	21
130	6
131	40
132	10
133	74
134	10
135	34
136	3
137	4
139	4
140	3
141	11
142	6
143	25
144	10
145	83
146	13
147	61
148	8
149	18
150	3
151	4
152	2
153	4
154	3
155	13
156	5
157	56
158	12
159	71
160	10
161	23
162	3
163	4
164	2
165	6
166	5
167	7
168	4
169	14
170	4
171	47
172	9
173	16
174	5
175	3
176	2
177	2
178	2
179	4
180	2
181	10
182	5
183	13
184	4
185	17
186	5
187	12
188	2
189	1
191	2
194	7
195	16
196	4
197	20
198	7
199	23
200	7
201	7
202	83
203	14
204	1
206	1
207	4
208	1
209	3
210	2
211	24
212	6
213	19
214	6
215	6
216	1
217	1
219	2
220	1
221	2
222	1
223	2
225	14
226	3
227	14
228	2
229	6
230	2
231	1
232	2
233	7
234	13
235	16
236	10
237	8
238	5
239	12
240	3
241	2
243	2
246	1
247	1
248	1
250	2
251	5
253	257
254	56
255	65
256	13
257	3
265	1
273	2
275	2
281	0
285	10
286	3
287	5
288	3
289	2
301	1
302	1
303	16
304	5
305	2
306	1
310	2
311	7
312	3
313	2
315	2
319	2
320	3
322	8
324	4
325	3
326	2
327	5
329	113
330	34
331	17
332	4
341	1
343	1
345	4
347	4
371	16
372	5
374	1
383	1
385	46
386	15
387	12
388	3
404	1
405	1
443	1
444	1
456	1
461	606
462	302
463	101
465	7
503	19
517	3
