Mass Spectrum: 2-Amino-5,6-dihydro-4,4,6-trimethyl-4H-1,3-oxazine
Formula: C7H14N2O
CAS: 57717-99-4
Molecular weight: 142
m/z	intensity
39	103
40	40
41	174
42	999
43	173
44	92
52	5
53	12
54	14
55	29
56	93
57	280
58	174
59	9
67	24
68	13
69	6
70	9
81	9
82	12
83	19
84	205
85	39
98	17
99	6
100	52
101	34
127	543
128	49
142	96
143	9
