Mass Spectrum: 4-Ethyl hydrogen itaconate
Formula: C7H10O4
CAS: 57718-07-7
Molecular weight: 158
m/z	intensity
12	1
13	2
14	8
15	31
16	2
17	3
18	10
24	1
25	5
26	32
27	206
28	50
29	999
30	24
31	120
32	2
33	1
34	4
36	4
37	24
38	48
39	346
40	251
41	216
42	88
43	61
44	35
45	104
46	19
47	4
48	2
49	1
50	3
51	3
52	1
53	12
54	4
55	19
56	7
57	112
58	64
59	8
60	17
61	3
62	2
63	4
64	2
65	5
66	6
67	35
68	238
69	97
70	12
71	14
72	10
73	24
74	3
75	3
78	1
79	1
81	5
82	2
83	5
84	49
85	513
86	988
87	49
88	6
90	1
92	2
93	1
94	4
95	4
96	7
97	3
99	20
100	2
101	2
102	1
108	1
109	1
110	3
111	4
112	66
113	672
114	43
115	6
121	3
122	1
126	3
127	2
128	1
129	2
130	26
131	5
138	9
139	1
140	22
141	8
143	5
155	2
156	1
157	3
158	43
159	4
