Mass Spectrum: Spiro[2.4]heptan-4-one
Formula: C7H10O
CAS: 5771-32-4
Molecular weight: 110
m/z	intensity
31	53
32	7
37	26
38	66
39	702
40	267
41	541
42	156
43	66
44	66
45	66
49	9
50	76
51	108
52	70
53	362
54	820
55	309
56	82
57	24
58	13
59	19
61	11
62	13
63	28
64	1
65	85
66	57
67	896
68	370
69	133
70	19
71	13
74	3
77	57
78	19
79	158
80	38
81	175
82	47
83	61
84	38
85	38
86	32
87	7
88	3
91	57
92	30
93	11
95	301
96	38
97	9
98	11
104	9
105	19
106	13
107	3
108	15
109	416
110	999
111	76
112	13
