Mass Spectrum: 1-Phenyl-1-nonanol
Formula: C15H24O
CAS: 57716-72-0
Molecular weight: 220
m/z	intensity
27	61
29	150
41	81
43	67
55	58
57	95
77	126
79	280
91	137
104	89
107	999
108	118
220	41
