Mass Spectrum: Bicyclo[4.1.0]heptan-2-one
Formula: C7H10O
CAS: 5771-58-4
Molecular weight: 110
m/z	intensity
41	50
42	40
50	40
51	60
52	50
53	130
54	999
55	830
56	60
63	20
65	40
66	130
67	630
68	420
69	80
77	20
78	20
79	70
80	20
81	310
82	400
92	30
95	50
109	30
110	620
111	60
