Mass Spectrum: Androstane-3,17-diol, (3.beta.,5.alpha.,17.beta.)-, 2TBDMS derivative
Formula: C31H60O2Si2
CAS: 57711-47-4
Molecular weight: 520
m/z	intensity
16	1
27	2
29	9
30	1
31	1
38	1
39	6
40	1
41	41
42	3
43	13
44	3
45	12
46	1
47	9
49	1
50	1
53	6
54	2
55	53
56	10
57	30
58	9
59	48
60	8
61	14
62	2
63	1
65	2
66	2
67	57
68	4
69	16
70	1
71	2
73	263
74	33
75	999
76	71
77	50
78	4
79	52
80	6
81	94
82	7
83	16
84	1
85	10
86	2
87	6
88	1
89	7
90	1
91	55
92	9
93	88
94	12
95	77
96	7
97	7
98	1
99	13
100	4
101	32
102	5
103	12
104	3
105	72
106	12
107	119
108	15
109	43
110	4
111	5
112	1
113	6
114	3
115	41
116	6
117	26
118	5
119	40
120	9
121	54
122	6
123	14
124	2
125	2
126	1
127	5
128	3
129	18
130	4
131	28
132	6
133	65
134	12
135	49
136	5
137	6
138	1
139	1
140	1
141	5
142	2
143	9
144	4
145	69
146	12
147	99
148	14
149	37
150	6
151	8
152	1
153	3
154	1
155	5
156	2
157	7
158	3
159	49
160	10
161	71
162	10
163	14
164	2
165	7
166	1
167	2
168	2
169	5
170	1
171	15
172	3
173	22
174	4
175	14
176	2
177	2
179	1
180	1
181	4
182	1
183	4
184	1
185	9
186	4
187	12
188	3
189	7
190	1
191	1
192	1
193	1
195	2
196	1
197	3
198	1
199	15
200	3
201	15
202	3
203	50
205	3
207	3
208	1
209	1
211	3
212	1
213	9
214	3
215	8
216	2
217	1
219	1
221	2
222	1
223	1
224	1
225	1
226	1
227	3
228	1
229	5
230	1
231	1
235	1
237	1
239	3
240	1
241	6
242	1
249	1
253	5
254	2
255	244
256	48
257	16
258	4
259	1
271	3
273	1
275	1
277	1
285	1
287	6
288	1
289	1
290	1
291	1
305	2
311	1
313	4
314	1
315	1
317	1
329	2
330	2
331	28
332	9
333	2
334	1
347	1
348	1
371	1
373	8
374	3
375	1
385	1
387	57
388	18
389	4
390	1
391	1
405	1
406	1
447	1
450	1
461	4
463	384
464	154
465	56
466	13
467	2
505	9
506	3
507	1
520	1
