Mass Spectrum: Benzene, 1,2-bis[2-[2-(2-methoxyethoxy)ethoxy]ethoxy]-
Formula: C20H34O8
CAS: 57721-95-6
Molecular weight: 402
m/z	intensity
26	2
27	10
28	15
29	103
30	3
31	118
32	1
33	3
34	0
39	2
41	10
42	2
43	36
44	8
45	82
46	2
50	1
51	2
52	9
53	2
54	1
55	1
57	3
58	11
59	999
60	30
61	2
64	3
65	7
66	1
69	1
70	1
71	3
72	2
73	9
75	1
76	0
77	6
78	1
79	3
80	17
81	6
82	1
85	1
86	0
87	6
88	0
89	7
90	0
91	4
92	2
93	3
94	1
95	2
101	0
102	0
103	225
104	12
105	1
107	3
108	5
109	10
110	11
115	1
117	0
119	1
120	1
121	41
122	4
123	2
133	1
134	1
135	8
136	97
137	15
138	1
147	126
148	10
149	5
150	0
151	2
154	1
161	1
163	6
164	0
165	1
179	1
180	2
181	0
193	0
198	0
224	0
256	11
257	1
300	1
402	48
403	11
404	2
