Mass Spectrum: 3-(4-Buthoxybenzylthio)-1,2,4-(4H)-triazole
Formula: C13H17N3OS
CAS: 57736-49-9
Molecular weight: 263
m/z	intensity
50	9
51	22
52	17
53	13
54	7
55	41
56	15
57	41
58	2
63	13
64	5
65	18
69	32
70	10
71	8
72	8
73	14
76	4
77	71
78	54
79	22
89	28
90	26
91	56
92	11
93	8
100	43
101	9
102	6
105	19
106	32
107	999
108	123
109	19
110	4
120	39
121	85
122	15
123	5
135	24
149	15
150	7
151	5
163	381
164	54
165	11
166	4
220	16
221	5
263	15
264	5
