Mass Spectrum: 1H-Indol-2(3H)-one, 5-bromo-3-(2-tolylimino)-
Formula: C15H11BrN2O
CAS: 57743-28-9
Molecular weight: 314
m/z	intensity
33	7
34	11
36	2
37	22
38	84
39	414
40	254
41	150
42	16
43	34
44	86
45	9
49	2
50	119
51	194
52	93
53	28
54	8
55	17
56	7
57	14
58	7
60	4
61	27
62	105
63	291
64	140
65	999
66	63
67	8
68	5
69	14
70	8
71	8
73	11
74	53
75	94
76	83
77	82
78	30
79	40
80	40
81	24
82	49
83	13
84	4
85	7
86	15
87	25
88	62
89	353
90	224
91	517
92	44
93	7
95	15
96	16
97	8
98	3
99	12
100	33
101	30
102	33
103	67
104	44
105	6
106	45
107	31
108	4
109	2
111	3
112	6
113	2
114	7
115	36
116	72
117	78
118	33
119	6
123	12
124	3
125	4
126	6
127	10
128	14
129	11
130	9
131	6
137	3
138	3
139	5
140	9
141	7
142	4
143	8
144	4
149	7
150	4
151	18
152	26
153	19
154	12
155	6
156	12
157	28
158	16
163	3
164	7
165	10
166	5
167	16
168	17
169	5
170	12
171	4
176	2
177	6
178	24
179	44
180	100
181	17
182	7
183	4
184	1
185	3
190	16
191	11
192	19
193	2
194	1
195	17
196	9
197	17
198	7
205	73
206	378
207	228
208	78
209	13
210	2
211	1
223	9
224	2
225	7
234	13
235	182
236	47
237	5
258	6
260	8
284	4
285	66
286	179
287	82
288	172
289	21
314	83
315	16
316	78
317	12
