Mass Spectrum: Propyl aldoxime, 2-methyl-, anti-
Formula: C4H9NO
CAS: 5775-73-5
Molecular weight: 87
m/z	intensity
41	656
42	512
43	332
44	189
45	55
46	65
50	21
51	41
52	49
53	30
54	123
55	137
56	51
57	22
58	75
59	82
68	50
70	999
71	62
72	199
86	42
87	32
