Mass Spectrum: Androst-2-ene-1,17-diol, 4-methyl- (1.alpha.,4.alpha.,5.beta.)
Formula: C20H32O2
CAS: 57782-47-5
Molecular weight: 304
m/z	intensity
26	1
27	21
28	3
29	62
30	4
31	11
39	27
40	6
41	143
42	12
43	105
44	18
45	12
51	4
52	2
53	47
54	10
55	163
56	27
57	68
58	9
59	1
63	1
65	20
66	10
67	97
68	24
69	47
70	5
71	19
72	1
77	52
78	15
79	96
80	25
81	119
82	23
83	49
84	999
85	58
86	4
87	2
89	2
91	99
92	21
93	98
94	21
95	101
96	12
97	21
98	15
99	2
100	3
102	3
103	7
104	4
105	88
106	40
107	108
108	27
109	57
110	22
111	12
112	2
115	8
116	4
117	17
118	11
119	53
120	31
121	60
122	21
123	37
124	16
125	4
127	1
128	6
129	8
130	5
131	28
132	12
133	36
134	13
135	27
136	8
137	10
138	6
139	2
141	3
142	3
143	10
144	4
145	27
146	9
147	40
148	11
149	28
150	7
151	7
152	3
153	2
154	1
155	2
156	2
157	11
158	4
159	19
160	10
161	38
162	11
163	17
164	6
165	3
166	2
167	2
168	3
169	2
171	7
172	3
173	17
174	7
175	13
176	19
177	11
178	4
179	3
180	2
181	2
183	2
184	1
185	6
186	2
187	23
188	5
189	8
190	6
191	4
192	2
197	2
199	5
200	2
201	16
202	34
203	79
204	15
205	8
206	2
207	1
211	2
213	5
214	2
215	5
216	5
217	5
218	3
220	49
221	34
222	9
223	1
227	8
228	2
229	13
230	3
231	3
232	4
233	5
234	9
235	2
242	2
243	2
244	2
245	4
246	2
247	17
248	3
249	2
253	6
254	1
255	2
257	2
260	4
268	2
269	1
271	14
272	3
273	6
274	1
286	26
287	7
288	4
289	10
290	2
304	57
305	12
306	1
