Mass Spectrum: 17a-Methyl-3.beta.-acetoxy-17a-aza-D-homoandrost-5-ene-17-one
Formula: C22H33NO3
CAS: 57789-27-2
Molecular weight: 359
m/z	intensity
41	273
43	999
44	155
45	29
46	7
47	4
49	3
50	2
51	8
52	6
53	55
54	19
55	276
56	232
57	94
58	61
59	5
60	8
61	8
63	3
65	33
66	13
67	86
68	45
69	33
70	37
71	85
72	13
73	26
74	4
75	2
77	74
78	18
79	102
80	20
81	76
82	52
83	20
84	76
85	11
86	14
87	7
88	2
89	3
90	2
91	136
92	22
93	55
94	34
95	36
96	46
97	20
98	84
99	10
100	4
102	3
103	15
104	10
105	98
106	20
107	38
108	39
109	33
110	49
111	12
112	46
113	6
114	4
115	26
116	12
117	40
118	3
119	51
120	31
121	24
122	28
123	22
124	120
125	36
126	19
127	9
128	25
129	31
130	12
131	34
132	10
133	20
134	20
135	16
136	21
137	11
138	43
139	7
140	7
141	14
142	27
143	32
144	10
145	29
146	8
147	16
148	6
149	18
150	33
151	11
152	9
153	5
154	5
155	9
156	5
157	21
158	13
159	23
160	8
161	8
162	16
163	13
164	49
165	11
166	6
167	6
168	3
169	6
170	3
171	8
172	6
173	9
174	7
175	5
176	7
177	4
178	13
179	123
180	21
181	5
182	2
183	5
184	3
185	5
186	4
187	4
188	6
189	3
190	6
191	4
192	4
193	4
194	2
195	3
196	2
197	5
198	3
199	10
200	4
201	2
202	3
203	2
204	4
205	2
206	2
207	2
209	6
210	2
211	11
212	4
213	4
214	4
215	2
216	3
218	3
223	2
225	3
226	2
227	3
228	4
229	2
230	3
235	2
239	3
240	2
241	2
242	3
243	1
244	3
245	7
246	2
253	3
254	1
256	6
257	2
268	2
270	7
271	2
272	2
274	1
282	4
283	3
284	585
285	117
286	16
288	2
296	2
297	2
298	25
299	145
300	40
301	6
302	19
303	4
312	6
313	2
314	4
315	3
316	35
317	8
318	3
328	1
329	1
330	8
331	3
332	3
342	3
344	84
345	20
346	5
348	2
350	1
358	21
359	34
360	14
361	3
362	2
