Mass Spectrum: Butyl aldoxime, 3-methyl-, syn-
Formula: C5H11NO
CAS: 5780-40-5
Molecular weight: 101
m/z	intensity
41	580
42	122
43	365
44	61
45	9
46	19
50	16
51	19
52	13
53	19
54	24
55	37
56	53
57	37
59	999
60	35
61	5
67	10
68	30
69	66
70	10
72	6
82	5
83	6
84	17
86	135
87	9
100	4
101	6
