Mass Spectrum: Propyl aldoxime, 2-methyl-, syn-
Formula: C4H9NO
CAS: 5780-39-2
Molecular weight: 87
m/z	intensity
41	515
42	397
43	300
44	136
45	49
46	61
50	20
51	32
52	40
53	30
54	107
55	145
56	37
57	15
58	67
59	67
68	57
70	999
71	51
72	227
73	13
86	48
87	26
