Mass Spectrum: Oxazolidine, 3-ethyl-2,2-dimethyl-
Formula: C7H15NO
CAS: 57817-78-4
Molecular weight: 129
m/z	intensity
15	41
26	11
27	61
29	58
30	45
39	30
41	66
42	156
43	188
44	275
45	4
50	9
54	19
55	31
56	199
57	26
58	59
68	6
69	5
70	94
71	48
72	398
73	20
84	35
85	10
86	31
87	2
98	13
99	10
114	999
115	71
116	4
128	4
129	51
130	7
