Mass Spectrum: 2H-Furo[2,3-b]pyrrole-2,5(3H)-dione, tetrahydro-3a,6a-dimethyl-, cis-
Formula: C8H11NO3
CAS: 57825-28-2
Molecular weight: 169
m/z	intensity
26	17
27	130
28	48
29	133
30	32
31	4
35	2
36	5
37	8
38	28
39	238
40	73
41	199
42	459
43	570
44	95
45	6
46	2
49	2
50	17
51	29
52	25
53	84
54	85
55	221
56	116
57	131
58	10
59	12
60	56
61	4
62	3
63	4
64	3
65	11
66	14
67	49
68	55
69	79
70	19
71	18
72	5
73	3
74	1
75	2
76	3
77	13
78	3
79	25
80	60
81	29
82	549
83	116
84	35
85	8
86	5
91	3
92	15
93	7
94	10
95	8
96	85
97	35
98	27
99	37
100	5
101	3
104	2
105	32
106	8
107	3
108	6
109	11
110	999
111	92
112	19
113	6
114	2
115	3
116	1
117	1
119	2
120	2
121	2
122	3
123	3
124	52
125	351
126	39
127	6
128	2
139	1
140	2
141	39
142	7
143	2
154	4
155	0
168	2
169	5
170	1
