Mass Spectrum: 1,3-Cyclopentanedipropanoic acid, 2-oxo-, dimethyl ester
Formula: C13H20O5
CAS: 57822-12-5
Molecular weight: 256
m/z	intensity
45	50
51	20
52	20
53	140
54	250
55	999
56	50
57	30
58	20
59	340
65	30
66	20
67	150
68	50
69	50
71	60
72	80
73	30
74	120
77	40
79	100
80	60
81	200
82	220
83	100
84	20
85	40
87	30
91	30
93	40
94	50
95	140
96	40
97	20
99	20
100	20
105	20
107	20
108	30
109	130
110	60
113	60
114	70
119	20
121	20
122	70
123	140
124	20
135	20
136	440
137	230
138	180
149	20
150	300
151	520
152	50
163	20
164	300
165	60
167	20
168	780
169	90
170	60
175	20
182	240
183	80
192	30
193	520
194	60
196	300
197	30
224	100
225	50
256	140
257	20
