Mass Spectrum: Chromium, bis(anisole)-
Formula: C14H16CrO2
CAS: 57820-92-5
Molecular weight: 268
m/z	intensity
52	99
65	81
78	90
93	28
108	999
122	12
130	8
134	9
145	20
160	120
238	16
268	67
