Mass Spectrum: 1,1-Dichloro-1-silaindane
Formula: C8H8Cl2Si
CAS: 57831-44-4
Molecular weight: 202
m/z	intensity
63	30
65	10
77	90
78	430
79	30
102	20
103	50
104	999
105	90
106	10
131	50
166	320
167	60
168	110
169	20
202	390
203	60
204	270
205	40
206	50
207	10
