Mass Spectrum: 2-Bromo-4-t-octylphenol
Formula: C14H21BrO
CAS: 57835-35-5
Molecular weight: 284
m/z	intensity
41	999
42	76
43	489
44	18
47	55
48	27
49	17
50	23
51	11
52	24
53	119
54	21
55	288
56	385
57	856
58	31
62	17
63	74
64	18
65	87
66	19
67	13
69	13
70	10
71	66
72	4
74	6
75	15
76	11
77	105
78	36
79	40
80	7
81	5
82	4
83	12
84	7
85	8
86	5
87	3
88	13
89	37
90	16
91	73
92	16
93	5
94	25
95	9
97	8
102	11
103	42
104	16
105	72
106	18
107	25
113	8
115	49
116	17
117	19
118	46
119	42
120	15
127	5
128	5
129	4
131	27
132	20
133	80
134	198
135	39
144	3
145	14
146	5
147	12
148	10
159	7
174	9
175	4
185	55
186	5
187	57
197	19
199	18
201	4
211	3
212	24
213	472
214	61
215	411
216	46
225	4
227	8
239	3
255	4
284	31
285	5
286	31
287	4
