Mass Spectrum: 3,5-Bis(4-chlorophenyl)-1-phenyl-2-pyrazoline
Formula: C21H16Cl2N2
CAS: 57845-06-4
Molecular weight: 366
m/z	intensity
33	6
34	5
36	29
37	9
38	38
39	133
41	184
43	63
44	47
46	5
49	6
50	98
51	327
55	57
56	14
57	59
61	14
62	21
63	110
64	262
65	84
66	9
67	10
69	29
70	26
71	25
73	22
74	45
75	144
77	464
78	40
80	3
81	9
82	9
83	16
84	12
85	14
86	9
87	16
88	17
89	59
91	999
93	18
95	38
97	12
98	9
99	20
101	89
102	86
103	71
104	26
105	33
106	8
107	7
109	6
111	81
112	36
113	32
114	18
115	14
116	9
117	30
118	18
119	7
120	5
123	12
125	71
126	10
127	27
128	9
129	5
132	6
133	9
136	22
137	50
138	104
139	43
140	34
141	9
143	3
147	47
149	42
150	9
151	21
152	17
153	4
157	3
162	12
163	13
164	14
165	51
166	18
167	11
171	17
176	7
177	7
178	11
179	5
183	27
184	22
187	10
189	54
190	20
191	38
192	21
193	26
194	9
199	9
200	3
201	7
202	4
203	6
204	8
205	3
212	5
214	25
215	8
216	9
217	4
218	8
219	9
220	5
223	4
225	21
226	33
227	36
228	79
229	23
230	23
231	5
238	6
239	5
240	5
241	28
242	6
243	8
248	2
253	12
254	20
255	200
256	40
257	61
258	9
259	3
261	8
263	4
273	3
274	15
275	11
276	20
277	8
278	9
283	6
301	4
329	2
330	4
331	9
332	4
333	4
362	33
364	30
365	50
366	426
367	126
368	264
369	66
370	46
371	9
