Mass Spectrum: 1-Pentanone, 4,4-dimethyl-1,3-diphenyl-
Formula: C19H22O
CAS: 57847-40-2
Molecular weight: 266
m/z	intensity
26	0
27	17
29	59
31	1
37	0
38	0
39	20
40	1
41	71
42	2
43	2
44	0
45	1
50	12
51	63
52	8
53	6
54	0
55	4
56	4
57	206
58	9
59	2
63	5
64	1
65	9
66	0
67	1
69	4
71	0
72	1
73	1
74	5
75	3
76	14
77	327
78	55
79	8
86	0
89	5
90	0
91	85
92	7
102	4
103	37
104	112
105	999
106	113
107	9
115	19
116	8
117	11
118	5
119	0
122	0
126	0
127	2
128	7
129	9
130	2
131	32
132	14
133	4
134	0
141	1
145	5
146	1
147	1
151	1
152	1
165	4
166	0
167	4
177	0
178	6
179	2
181	15
182	1
187	0
189	0
191	3
192	16
193	7
194	2
195	5
207	6
208	3
209	40
210	837
211	152
212	11
251	12
252	3
264	0
266	8
267	1
