Mass Spectrum: O,O'-Bis(2-diisopropylaminoethyl) methylphosphonite
Formula: C17H39N2O2P
CAS: 57856-12-9
Molecular weight: 334
m/z	intensity
41	227
42	240
43	407
44	758
56	80
58	26
70	342
71	31
72	299
84	256
85	181
86	191
98	72
99	12
112	74
114	999
115	80
127	236
128	438
129	39
148	11
190	5
192	5
206	5
207	6
