Mass Spectrum: Tetracosanal
Formula: C24H48O
CAS: 57866-08-7
Molecular weight: 352
m/z	intensity
29	136
36	5
41	531
42	100
43	918
44	173
45	83
46	7
54	88
55	741
56	218
57	999
58	38
66	116
67	356
68	507
69	524
70	177
71	504
72	76
80	44
81	351
82	861
83	487
84	116
85	241
95	259
96	514
97	362
98	57
99	51
109	169
110	175
111	168
112	39
123	121
124	115
125	89
126	30
137	75
138	78
151	34
152	36
154	25
166	18
180	17
222	19
236	16
277	11
278	14
292	13
294	7
306	23
307	10
308	10
334	71
335	21
352	10
353	4
