Mass Spectrum: 1-Ethylcyclopropanol
Formula: C5H10O
CAS: 57872-31-8
Molecular weight: 86
m/z	intensity
26	80
27	330
28	140
29	670
30	30
31	110
39	120
40	40
41	170
42	50
43	300
44	30
45	20
53	150
55	70
56	30
57	999
58	50
59	30
67	30
71	30
85	30
86	60
