Mass Spectrum: Permethylspermine
Formula: C16H38N4
CAS: 57905-96-1
Molecular weight: 286
m/z	intensity
41	60
42	129
43	71
44	71
45	71
57	52
58	999
59	65
70	100
71	107
72	71
84	286
85	525
86	206
98	179
100	157
286	33
