Mass Spectrum: N,N',N''-Trinitro-1,3,5-triazacycloheptane
Formula: C4H8N6O6
CAS: 5790-78-3
Molecular weight: 236
m/z	intensity
42	999
43	47
44	12
46	59
48	0
55	87
57	22
58	6
59	4
60	1
67	0
69	24
70	10
71	2
73	1
75	7
81	0
83	4
85	28
86	1
89	11
97	28
98	2
99	3
100	0
102	1
104	8
105	3
116	167
117	3
120	0
126	0
130	4
132	2
134	9
142	5
144	6
145	3
149	2
161	4
162	8
163	8
173	0
178	13
190	3
206	0
208	10
219	0
236	1
