Mass Spectrum: Quinazoline, 7-chloro-4-(4-diethylamino-1-methylbutylamino)-2-methyl-
Formula: C18H27ClN4
CAS: 57942-25-3
Molecular weight: 334
m/z	intensity
33	1
34	2
36	17
38	11
39	39
40	21
41	211
42	183
43	133
44	58
45	3
46	1
48	0
49	1
50	10
51	8
52	8
53	14
54	14
55	106
56	130
57	148
58	178
59	6
60	3
61	3
62	5
63	8
64	5
65	8
66	2
67	21
68	15
69	65
70	80
71	104
72	47
73	32
74	10
75	18
76	6
77	5
78	2
79	3
80	3
81	7
82	19
83	32
84	82
86	999
87	50
88	7
89	7
90	6
91	5
92	1
93	2
94	1
95	3
96	8
97	15
98	24
99	122
100	42
101	16
102	11
103	2
104	1
105	1
106	0
107	2
109	6
110	14
111	14
112	84
113	26
114	9
115	6
116	6
117	5
118	4
119	1
120	1
121	0
122	0
123	3
124	16
125	11
126	70
127	7
129	10
130	2
132	1
133	0
134	0
136	48
137	28
138	16
139	16
140	8
141	4
142	14
143	6
144	3
145	1
146	0
148	0
149	1
150	5
151	5
152	15
153	16
154	3
155	5
156	1
157	5
158	2
159	2
160	1
161	0
162	0
163	3
164	1
165	2
166	1
167	2
168	1
169	1
170	3
171	54
172	5
173	1
175	1
177	111
178	20
179	39
180	7
181	2
182	0
183	1
184	1
185	3
186	1
187	0
189	4
190	1
192	6
193	45
194	31
195	18
196	10
197	2
198	0
199	1
200	0
203	0
204	0
205	2
206	4
207	1
208	1
209	0
210	0
211	0
213	1
216	0
218	10
219	4
220	27
221	8
222	9
223	2
224	0
225	0
226	1
227	0
228	1
229	0
230	0
231	0
232	8
233	2
234	21
235	5
236	6
237	1
241	2
242	0
243	0
244	1
245	0
246	2
247	1
248	6
249	1
250	1
251	0
254	0
255	0
256	1
258	2
260	55
261	12
262	41
263	9
264	8
265	1
269	1
277	0
279	0
281	0
282	0
283	12
284	2
297	0
301	4
302	0
305	11
306	2
307	3
308	0
319	1
320	0
321	0
332	0
334	23
335	5
336	8
337	1
