Mass Spectrum: Benzene-1,3-diamine, N-dimethylaminosulfonyl-
Formula: C8H13N3O2S
CAS: 57947-00-9
Molecular weight: 215
m/z	intensity
33	0
34	0
38	11
39	29
40	22
41	35
42	116
43	38
44	65
45	38
46	85
48	9
50	9
51	25
52	72
53	105
54	25
55	3
56	1
57	1
58	0
60	1
61	3
62	7
63	21
64	22
65	25
66	13
67	22
68	3
69	2
70	1
71	3
72	0
73	0
74	0
75	2
76	7
78	51
80	999
81	114
82	10
83	2
84	3
85	0
86	0
87	0
88	1
89	2
90	13
91	20
92	51
93	8
94	7
95	3
96	4
97	1
98	1
99	1
100	0
102	0
103	1
105	118
106	414
107	150
108	440
109	39
110	8
111	1
112	1
113	1
114	1
115	5
116	1
117	1
118	1
119	6
120	12
121	19
122	6
123	4
124	1
125	1
126	1
127	1
128	1
129	0
133	7
134	4
135	3
136	7
137	1
138	1
139	0
140	2
141	2
142	2
143	13
144	2
146	4
147	0
148	1
149	0
150	1
151	4
152	0
153	2
154	3
155	3
156	1
157	0
168	1
170	646
171	62
172	34
173	2
174	0
175	0
183	1
184	0
185	4
186	0
189	0
196	0
197	1
199	0
201	0
210	0
211	0
212	1
215	809
216	87
217	44
218	3
219	0
