Mass Spectrum: 1-Methylphospholane-1-oxide
Formula: C5H11OP
CAS: 5794-87-6
Molecular weight: 118
m/z	intensity
41	125
42	16
43	55
44	27
45	109
47	447
48	67
49	117
50	14
51	34
52	4
53	41
54	19
55	123
56	30
57	36
58	10
59	21
60	10
61	37
62	375
63	186
64	123
65	8
67	4
68	1
69	8
70	1
71	9
72	98
73	15
75	252
76	40
77	110
78	75
79	1
81	3
83	18
84	30
85	112
86	17
87	3
88	3
89	19
90	999
91	85
92	8
102	16
103	152
104	4
116	1
117	541
118	507
119	41
120	5
