Mass Spectrum: 5,7-Decadien-3-yne, 2,9-dihydroxy-5-(1-hydroxy-1-methylethyl)-2,9-dimethyl-, (Z,E)-
Formula: C15H24O3
CAS: 57956-69-1
Molecular weight: 252
m/z	intensity
27	25
29	33
31	80
36	2
38	1
39	34
40	5
41	118
42	5
43	999
44	19
45	10
50	3
51	19
52	5
53	22
54	2
55	36
56	2
57	12
58	2
59	282
60	9
61	1
63	8
64	2
65	23
66	4
67	19
69	36
70	4
71	47
72	4
74	1
75	2
76	2
77	45
78	11
79	27
80	4
81	14
82	3
83	25
84	2
85	3
89	4
90	1
91	79
92	10
93	29
94	4
95	13
96	3
97	24
98	1
99	1
101	1
102	5
103	14
104	8
105	78
106	15
107	32
108	5
109	12
110	1
111	2
115	21
116	8
117	34
118	16
119	57
120	10
121	32
122	5
123	6
127	3
128	13
129	20
130	6
131	41
132	7
133	163
134	20
135	36
136	6
137	5
138	1
141	5
142	8
143	21
144	38
145	28
146	17
147	53
148	14
149	29
150	4
151	2
155	2
156	2
157	9
158	24
159	124
160	22
161	132
162	119
163	26
164	3
165	1
171	1
172	1
173	21
174	7
175	20
176	23
177	15
178	1
179	2
183	1
186	3
187	3
188	1
189	4
191	25
192	3
193	4
199	1
201	21
202	3
205	1
216	2
217	4
218	1
219	19
220	3
234	2
250	1
252	98
253	17
254	1
