Mass Spectrum: 2,2-Dimethyl-3-oxopentanoic acid, ethyl ester
Formula: C9H16O3
CAS: 57959-48-5
Molecular weight: 172
m/z	intensity
25	5
26	80
27	521
28	71
29	999
30	34
31	42
33	7
37	7
38	18
39	183
40	54
41	296
42	231
43	188
44	19
45	62
46	3
50	8
51	13
52	4
53	20
54	6
55	58
56	16
57	885
58	33
59	167
60	12
61	4
62	3
63	6
64	3
65	10
66	5
67	16
68	4
69	42
70	249
71	94
72	7
73	125
74	6
75	4
76	2
77	10
78	4
79	6
81	5
82	2
83	10
84	2
85	9
86	5
87	186
88	372
89	23
90	3
91	11
92	3
93	11
94	3
95	2
97	3
98	2
99	33
100	10
101	3
103	3
115	28
116	366
117	33
118	5
119	1
127	75
128	6
129	2
132	2
143	10
172	12
173	4
