Mass Spectrum: Acetamide, 2-cyano-N-[(ethylamino)carbonyl]-2-(methoxyimino)-
Formula: C7H10N4O3
CAS: 57966-95-7
Molecular weight: 198
m/z	intensity
14	2
15	23
16	3
17	2
18	15
24	1
26	9
27	71
28	98
29	266
30	407
31	37
32	10
33	3
38	9
39	5
40	13
41	17
42	70
43	66
44	999
45	42
46	4
47	3
52	22
53	153
54	30
55	13
56	66
57	6
58	14
59	8
60	1
66	4
67	4
68	4
69	12
70	259
71	31
72	129
73	7
79	2
80	4
81	7
82	3
83	132
84	11
85	6
86	7
87	5
96	18
97	7
98	17
99	18
100	4
107	1
109	2
110	7
111	261
112	16
113	10
114	9
115	10
124	82
125	10
126	2
127	3
128	124
129	7
139	3
140	39
141	3
150	6
152	2
153	7
154	12
155	3
167	140
168	18
169	2
183	83
184	7
198	3
