Mass Spectrum: 3,4-Methylenedioxyphenyl-2-propanone semicarbazone
Formula: C11H13N3O3
CAS: 57961-86-1
Molecular weight: 235
m/z	intensity
41	69
42	125
43	55
44	456
45	9
46	0
49	6
50	108
51	433
52	75
53	76
54	14
55	36
56	37
57	999
58	29
59	19
60	7
61	11
62	47
63	131
64	38
65	107
66	26
67	26
68	7
69	7
70	2
71	5
72	3
73	9
74	26
75	44
76	145
77	563
78	131
79	84
80	16
81	12
83	587
84	22
85	4
86	5
87	8
88	14
89	46
90	17
91	47
92	34
93	21
94	8
95	7
96	5
100	902
101	32
102	67
103	98
104	106
105	126
106	37
107	10
108	3
109	3
115	8
116	21
117	65
118	114
119	29
120	11
121	61
122	50
123	10
129	3
130	16
131	25
132	13
133	67
134	456
135	442
136	134
137	15
144	5
145	48
146	284
147	56
148	35
149	17
150	26
151	9
159	6
160	114
161	84
162	40
163	9
174	250
175	203
176	68
177	18
178	0
189	5
191	15
192	75
193	12
203	1
217	0
218	30
219	5
235	639
236	116
237	13
