Mass Spectrum: 2',3'-O-ISOPROPYLIDENECYTIDINE
Formula: C12H17N3O5
CAS: 57977-73-8
Molecular weight: 283
m/z	intensity
14	4
15	27
16	1
17	3
18	10
25	1
26	12
27	50
28	56
29	65
30	8
31	86
32	2
35	4
36	32
37	3
38	11
39	64
40	50
41	126
42	78
43	416
44	44
45	17
46	2
47	3
50	2
51	5
52	31
53	15
54	22
55	53
56	25
57	162
58	37
59	324
60	17
61	7
63	1
64	1
65	4
66	19
67	53
68	310
69	265
70	39
71	90
72	10
73	32
74	2
75	1
76	1
77	3
78	6
79	21
80	8
81	19
82	10
83	74
84	67
85	146
86	39
87	9
89	11
90	2
91	2
92	3
93	11
94	40
95	64
96	34
97	29
98	8
99	4
100	9
101	13
102	1
104	1
105	3
106	2
107	6
108	7
109	11
110	17
111	452
112	999
113	76
114	65
115	48
116	4
118	2
119	2
120	2
121	9
122	28
123	15
124	9
125	12
126	18
127	4
128	1
129	12
130	1
133	1
134	5
135	14
136	97
137	15
138	30
139	6
140	57
141	8
142	20
143	5
144	1
146	1
147	2
148	4
149	4
150	10
151	65
152	12
153	9
154	10
155	2
156	1
157	50
158	5
159	1
160	2
161	1
162	3
163	1
164	3
165	4
166	24
167	6
168	12
169	85
170	8
171	1
172	6
173	10
174	2
176	3
177	5
178	91
179	9
180	18
181	3
182	4
183	2
190	2
192	1
194	116
195	19
196	10
197	4
198	1
207	1
208	9
209	2
213	1
224	3
225	12
226	4
227	2
228	2
238	2
244	2
252	10
253	9
254	1
268	20
269	3
283	3
