Mass Spectrum: Bicyclo[3.1.1]hept-2-ene, 2,2'-(1,2-ethanediyl)bis[6,6-dimethyl-
Formula: C20H30
CAS: 57988-82-6
Molecular weight: 270
m/z	intensity
27	116
28	44
29	123
39	79
40	42
41	591
42	19
43	337
44	11
50	3
51	20
52	7
53	141
54	8
55	250
56	16
57	69
58	2
63	5
65	68
66	14
67	281
68	17
69	571
70	38
71	14
72	4
76	3
77	258
78	70
79	319
80	51
81	227
82	25
83	60
84	2
85	9
86	2
89	3
91	999
92	319
93	541
94	52
95	135
96	13
97	46
98	5
99	2
102	3
103	36
104	25
105	347
106	89
107	171
108	26
109	117
110	15
111	20
112	2
115	44
116	14
117	439
118	55
119	517
120	71
121	89
122	22
123	168
124	15
127	5
128	35
129	147
130	61
131	227
132	43
133	180
134	323
135	114
136	68
137	36
138	4
141	12
142	31
143	212
144	55
145	252
146	59
147	50
148	15
149	11
150	4
152	3
153	3
155	13
156	15
157	163
158	25
159	87
160	27
161	25
162	5
163	2
165	3
167	5
169	19
170	6
171	234
172	40
173	42
174	28
175	12
183	42
184	9
185	44
186	34
187	35
188	26
189	8
190	3
199	39
200	39
201	249
202	49
203	3
213	48
214	26
215	3
226	54
227	478
228	87
229	48
230	7
241	7
242	4
255	35
256	6
270	179
271	35
272	3
