Mass Spectrum: Propanedioic acid, ethyl-, bis(1-methylpropyl) ester
Formula: C13H24O4
CAS: 57983-52-5
Molecular weight: 244
m/z	intensity
40	13
41	321
42	29
43	139
44	29
45	64
49	5
51	0
53	6
55	130
56	112
57	687
58	32
59	8
60	1
69	29
70	81
71	12
73	159
74	2
84	2
86	23
87	21
88	238
89	14
97	6
104	46
105	34
113	4
114	26
115	999
116	59
117	11
131	0
132	11
133	281
134	16
135	4
142	2
144	20
153	8
159	9
160	18
161	1
171	230
172	19
189	15
215	2
216	7
