Mass Spectrum: L-Aspartic acid, N-methyl-N-(trifluoroacetyl)-, bis(1-methylpropyl) ester
Formula: C15H24F3NO5
CAS: 57983-69-4
Molecular weight: 355
m/z	intensity
40	34
41	669
42	600
43	118
44	105
45	98
46	6
47	5
48	0
49	3
50	17
51	12
52	4
53	28
54	31
55	201
56	243
57	999
58	157
59	37
60	11
61	3
64	0
66	2
68	4
69	123
70	13
71	31
72	12
73	54
74	5
77	1
78	8
80	5
81	4
82	15
83	13
84	276
85	21
86	4
87	2
88	5
89	2
92	1
96	7
97	13
98	6
99	86
100	67
101	30
102	101
103	7
104	1
106	2
107	0
108	5
109	2
110	94
111	18
112	2
114	8
115	2
116	2
117	5
118	15
119	1
126	11
127	10
128	125
129	10
130	9
131	1
132	3
134	1
135	2
138	5
139	2
140	17
141	2
142	2
145	10
146	17
147	2
151	2
152	26
153	246
154	420
155	33
156	68
157	4
158	5
162	0
164	5
166	3
167	5
170	8
171	2
173	2
174	6
175	2
176	6
178	1
179	4
180	59
181	45
182	21
183	2
184	38
185	2
196	8
197	24
198	961
200	18
201	5
204	8
206	1
207	3
208	0
210	0
212	12
213	4
222	1
223	3
224	18
226	858
227	7
228	7
230	10
240	4
242	3
243	106
244	9
245	4
253	2
254	212
255	45
256	9
281	1
282	11
299	32
300	2
355	10
356	4
