Mass Spectrum: 2-Butanol, 3-bromo-, acetate
Formula: C6H11BrO2
CAS: 5798-81-2
Molecular weight: 194
m/z	intensity
25	0
26	17
27	122
28	31
29	90
30	3
31	21
36	1
37	2
38	5
39	52
40	6
41	59
42	29
43	999
44	39
45	116
46	3
47	2
49	1
50	6
51	8
52	4
53	24
54	9
55	214
56	59
57	23
58	3
59	18
60	2
61	45
62	1
69	1
70	1
71	6
72	28
73	100
74	10
75	1
79	2
80	3
81	2
82	3
85	0
86	2
87	549
88	33
89	3
90	0
93	2
95	2
97	0
99	1
100	0
101	1
105	1
106	1
107	24
108	2
109	20
110	1
114	2
115	13
116	1
134	62
135	33
136	65
137	25
138	2
151	5
152	1
153	5
179	3
181	2
193	1
195	1
