Mass Spectrum: Ethane, 1,2-dichloro-1,2-diethoxy-
Formula: C6H12Cl2O2
CAS: 57987-56-1
Molecular weight: 186
m/z	intensity
25	2
26	33
27	236
28	52
29	999
30	49
31	201
35	5
36	22
37	3
38	7
39	7
41	60
42	45
43	44
44	7
45	54
46	2
47	13
48	11
49	74
50	6
51	27
55	4
57	33
58	20
59	766
60	146
61	19
62	3
63	18
64	3
65	290
66	7
67	105
68	3
69	24
71	7
73	3
75	11
76	9
77	32
78	83
79	41
80	30
81	11
83	3
85	3
86	5
87	222
88	52
89	4
91	3
92	3
93	819
95	58
96	351
97	27
98	18
99	9
104	11
106	38
107	30
108	14
109	11
112	4
113	37
114	4
116	24
117	41
118	5
122	11
123	143
124	11
126	53
141	10
143	8
149	5
150	10
151	183
152	17
153	62
154	6
