Mass Spectrum: Glycine, N-methyl-N-(trifluoroacetyl)-, 1-methylpentyl ester
Formula: C11H18F3NO3
CAS: 57983-78-5
Molecular weight: 269
m/z	intensity
40	13
41	242
42	210
43	999
44	76
45	7
49	5
50	3
53	12
54	6
55	127
56	73
57	122
58	10
60	31
64	2
69	154
70	3
72	71
78	34
83	2
84	50
85	281
86	20
88	13
90	22
97	17
110	9
112	22
126	11
139	6
140	682
141	501
142	31
166	13
168	134
169	5
185	128
186	26
