Mass Spectrum: L-Valine, N-(trifluoroacetyl)-, 1-methylbutyl ester
Formula: C12H20F3NO3
CAS: 57983-40-1
Molecular weight: 283
m/z	intensity
40	22
41	269
42	102
43	999
44	82
45	38
49	10
51	9
53	24
54	14
55	911
56	112
57	12
58	4
68	5
69	116
70	48
71	414
72	31
73	29
78	4
82	5
83	4
84	15
85	2
86	1
87	4
96	13
98	24
100	39
101	8
114	97
115	1
116	12
125	8
126	28
127	1
140	8
152	10
153	142
154	113
155	6
166	6
167	10
168	734
169	338
170	25
171	42
194	4
196	57
214	12
