Mass Spectrum: L-Alanine, N-(trifluoroacetyl)-, 1-methylpentyl ester
Formula: C11H18F3NO3
CAS: 57983-75-2
Molecular weight: 269
m/z	intensity
40	4
41	166
42	106
43	999
44	63
45	78
47	28
51	5
53	5
55	80
56	41
57	98
58	6
66	11
69	99
70	42
72	37
83	2
84	24
85	230
86	20
88	16
92	22
93	11
97	3
101	16
116	6
138	7
139	5
140	516
141	308
142	15
168	96
169	6
186	10
