Mass Spectrum: l-Threonine, N-(trifluoroacetyl)-, 1-methylpropyl ester, acetate (ester)
Formula: C12H18F3NO5
CAS: 57983-71-8
Molecular weight: 313
m/z	intensity
40	16
41	184
42	23
43	999
44	110
45	39
46	2
50	1
51	10
53	3
54	16
55	39
56	49
57	316
58	14
59	6
61	134
62	1
65	1
66	1
69	56
70	8
72	53
73	10
74	10
75	1
77	7
78	6
79	3
82	4
83	1
84	78
85	10
86	31
87	49
88	2
93	1
96	4
100	8
101	1
106	11
107	16
114	5
117	9
119	2
125	4
126	6
138	15
140	2
146	3
149	5
150	1
152	208
153	352
154	28
168	3
169	2
170	49
171	67
172	3
180	8
181	1
182	5
196	4
198	35
199	2
212	37
213	64
214	6
227	15
240	47
241	4
258	4
269	8
