Mass Spectrum: Pentanedioic acid, 2,2-dimethyl-, bis(1-methylpropyl) ester
Formula: C15H28O4
CAS: 57983-30-9
Molecular weight: 272
m/z	intensity
40	16
41	379
42	73
43	111
44	54
45	63
49	8
51	4
53	19
54	9
55	161
56	233
57	492
58	23
59	36
60	44
61	30
63	1
67	7
68	8
69	284
70	151
71	18
72	3
73	158
74	12
81	1
82	6
83	6
84	1
85	3
86	1
87	18
88	137
89	6
96	4
97	426
98	31
99	10
100	5
101	28
102	2
103	2
107	0
113	4
114	73
115	999
116	182
117	46
126	4
127	14
128	1
129	19
130	4
141	10
142	37
143	895
144	144
145	17
157	5
160	1
161	11
170	3
171	3
172	15
185	1
199	120
200	10
216	0
217	15
