Mass Spectrum: L-Glutamic acid, N-(trifluoroacetyl)-, bis(1-methylbutyl) ester
Formula: C17H28F3NO5
CAS: 57983-12-7
Molecular weight: 383
m/z	intensity
41	370
42	145
43	999
44	139
45	251
55	203
57	42
59	10
69	113
70	102
71	364
73	94
84	70
85	97
88	64
107	40
139	63
152	245
153	67
180	252
181	144
198	442
199	120
226	352
