Mass Spectrum: Butanoic acid, 3-bromo-3-methyl-
Formula: C5H9BrO2
CAS: 5798-88-9
Molecular weight: 180
m/z	intensity
41	275
42	77
43	208
45	266
46	5
49	26
50	116
51	115
52	39
53	187
54	230
55	385
56	26
57	97
58	27
59	101
60	41
61	2
66	13
67	50
68	10
69	12
71	12
73	5
81	2
82	475
83	442
85	413
86	16
100	999
101	62
180	15
182	15
