Mass Spectrum: 4-Piperidinol, 4-(4-bromophenyl)-
Formula: C11H14BrNO
CAS: 57988-58-6
Molecular weight: 255
m/z	intensity
15	16
17	1
18	3
26	6
27	40
28	133
29	80
30	341
31	7
34	2
36	2
37	2
38	8
39	41
40	7
41	53
42	999
43	213
44	346
45	14
49	3
50	69
51	93
52	18
53	25
54	13
55	34
56	462
57	550
58	52
59	2
60	28
61	6
62	18
63	69
64	32
65	33
66	3
67	4
68	55
69	7
70	18
71	11
72	13
73	4
74	45
75	101
76	84
77	120
78	30
79	19
80	56
81	41
82	236
83	18
84	38
85	6
86	11
87	14
88	12
89	43
90	43
91	60
92	6
93	1
94	3
95	2
96	6
97	3
98	25
99	42
100	11
101	58
102	113
103	46
104	30
105	15
106	4
107	2
109	1
110	1
111	2
112	3
113	8
114	24
115	162
116	97
117	37
118	12
119	9
120	6
121	2
122	1
123	1
125	6
126	39
127	150
128	167
129	369
130	133
131	70
132	23
133	19
134	2
135	1
139	2
140	5
141	9
142	5
143	25
144	6
145	4
146	3
147	2
148	4
149	4
151	1
152	9
153	21
154	92
155	64
156	42
157	60
158	368
159	81
160	8
169	67
170	5
171	63
172	6
173	2
175	3
176	4
177	9
178	2
180	10
181	25
182	43
183	141
184	53
185	116
186	19
187	3
188	1
189	1
193	20
194	5
195	36
196	30
197	19
198	84
199	19
200	55
201	11
202	1
206	4
207	5
208	109
209	49
210	152
211	60
212	53
213	15
214	3
215	1
219	2
220	2
221	9
222	19
223	9
224	21
225	27
226	18
227	80
228	20
229	58
230	6
231	1
232	5
233	315
234	56
235	317
236	399
237	813
238	452
239	810
240	118
241	14
242	5
250	12
251	9
252	16
253	9
254	49
255	272
256	83
257	272
258	35
259	3
