Mass Spectrum: L-Threonine, N-(trifluoroacetyl)-, 1-methylpropyl ester, trifluoroacetate (ester)
Formula: C12H15F6NO5
CAS: 57983-18-3
Molecular weight: 367
m/z	intensity
40	12
41	449
42	28
43	61
44	31
45	55
46	1
47	29
48	9
49	101
50	18
51	43
52	1
53	8
54	23
55	54
56	92
57	999
58	56
59	19
60	3
66	2
68	3
69	237
70	5
72	3
73	21
77	2
78	9
79	0
82	11
83	11
84	157
85	14
86	52
87	1
88	8
90	2
94	0
95	1
96	14
97	13
98	2
100	5
102	0
104	4
108	0
109	1
110	2
113	12
114	2
115	2
118	0
119	1
123	0
124	4
125	4
126	6
128	2
131	1
132	11
133	2
138	23
139	1
140	2
141	26
142	1
150	2
151	9
152	372
153	499
154	40
155	2
169	0
170	9
171	11
178	3
179	9
180	18
181	1
182	0
196	1
197	8
198	29
199	2
214	3
215	0
242	1
246	0
264	0
265	3
266	47
267	4
274	0
292	3
293	0
294	56
295	4
312	2
