Mass Spectrum: L-Leucine, N-(trifluoroacetyl)-, 1-methylpentyl ester
Formula: C14H24F3NO3
CAS: 57983-55-8
Molecular weight: 311
m/z	intensity
40	21
41	271
42	64
43	999
44	70
45	31
46	2
47	9
48	1
49	32
50	3
51	10
52	2
53	16
54	13
55	122
56	46
57	140
58	13
59	8
65	1
66	6
67	18
68	20
69	608
70	64
71	9
72	2
73	4
74	6
78	3
81	1
83	9
84	47
85	316
86	25
92	5
93	4
95	4
96	9
97	12
98	6
99	13
101	3
113	14
114	39
115	4
126	31
130	6
138	5
139	22
140	396
141	22
142	4
152	1
153	26
154	3
155	0
166	21
167	2
168	74
169	6
171	35
180	6
181	8
182	261
183	230
184	26
185	1
208	2
210	43
211	5
212	11
226	1
228	6
