Mass Spectrum: Caffeine
Formula: C8H10N4O2
CAS: 58-08-2
Molecular weight: 194
m/z	intensity
14	2
15	38
16	1
26	2
27	9
28	37
29	10
30	3
31	1
38	10
39	16
40	65
41	62
42	138
43	7
44	1
50	1
51	13
52	37
53	52
54	68
55	439
56	79
57	12
58	16
59	1
61	1
64	2
65	11
66	62
67	438
68	52
69	18
70	41
71	1
72	1
76	1
77	7
78	6
79	14
80	24
81	81
82	328
83	36
91	1
92	2
93	8
94	45
95	13
96	7
97	22
106	1
107	7
108	41
109	721
110	92
111	15
112	1
120	2
121	3
122	12
123	7
124	9
125	1
132	1
133	1
134	1
135	7
136	60
137	62
138	29
139	2
140	1
147	1
148	1
149	8
150	15
151	5
152	6
153	1
161	1
163	2
164	7
165	77
166	13
167	1
179	1
193	135
194	999
195	103
196	9
197	1
