Mass Spectrum: Biotin
Formula: C10H16N2O3S
CAS: 58-85-5
Molecular weight: 244
m/z	intensity
26	4
27	71
28	82
29	64
30	43
31	9
34	2
36	7
38	3
39	64
40	14
41	188
42	88
43	130
44	33
45	122
46	40
47	35
48	7
49	2
50	3
51	8
52	8
53	40
54	63
55	135
56	121
57	87
58	15
59	41
60	76
61	322
62	10
63	4
65	24
66	13
67	112
68	69
69	98
70	104
71	91
72	13
73	140
74	71
75	32
76	18
77	13
78	5
79	28
80	56
81	58
82	44
83	43
84	179
85	611
86	53
87	323
88	37
89	15
90	14
91	12
92	4
93	22
94	18
95	32
96	34
97	999
98	230
99	85
100	293
101	59
102	20
103	6
104	7
105	8
106	5
107	7
108	10
109	15
110	20
111	100
112	541
113	100
114	32
115	24
116	4
117	3
118	2
119	3
120	3
121	6
122	6
123	21
124	18
125	15
126	9
127	15
128	7
129	15
130	9
131	4
132	4
133	3
134	2
135	5
136	10
137	11
138	17
139	14
140	14
141	9
142	13
143	50
144	72
145	25
146	6
147	3
148	2
151	11
152	11
153	5
154	7
155	5
156	5
157	12
158	13
159	4
160	79
161	13
162	5
163	3
164	2
165	5
166	59
167	12
168	21
169	6
170	2
171	7
172	2
173	2
175	2
177	2
179	15
180	5
181	3
182	4
183	5
184	734
185	269
186	60
187	14
188	2
193	3
194	2
195	2
197	33
198	21
199	8
200	14
201	12
202	3
211	11
226	10
227	21
228	3
229	4
244	168
245	31
246	11
247	2
