Mass Spectrum: 1H-Cyclopenta[a]pentalen-7-ol, decahydro-3,3,4,7a-tetramethyl-, 4-methylbenzenesulfonate
Formula: C22H32O3S
CAS: 58003-47-7
Molecular weight: 376
m/z	intensity
39	320
40	50
41	800
42	70
43	260
44	20
45	10
46	10
48	10
49	10
50	40
51	110
52	50
53	230
54	30
55	490
56	60
57	90
58	10
59	10
60	10
61	10
62	10
63	50
64	20
65	230
66	40
67	310
68	30
69	420
70	60
71	120
72	10
73	10
74	10
75	20
76	10
77	320
78	130
79	390
80	220
81	620
82	60
83	80
84	20
85	10
86	10
87	10
88	10
89	40
90	30
91	999
92	370
93	670
94	220
95	310
96	50
97	40
98	10
99	10
101	10
102	10
103	60
104	40
105	580
106	470
107	610
108	140
109	300
110	40
111	30
112	30
113	10
114	10
115	70
116	30
117	90
118	30
119	500
120	110
121	110
122	270
123	160
124	30
125	10
126	10
127	10
128	30
129	30
130	20
131	60
132	30
133	380
134	410
135	590
136	110
137	30
138	10
139	10
140	10
141	10
142	10
143	10
144	10
145	30
146	20
147	220
148	720
149	180
150	30
151	20
152	10
153	10
154	10
155	10
156	10
157	10
159	10
160	10
161	280
162	560
163	90
164	10
165	10
166	10
167	10
168	10
169	10
172	60
173	20
174	10
175	210
176	60
177	20
178	10
182	10
183	10
185	10
186	10
187	10
188	10
189	390
190	70
191	10
192	10
193	10
197	10
202	10
203	10
204	480
205	90
206	20
207	10
208	10
214	10
215	10
217	10
218	10
219	10
220	10
221	10
222	10
224	10
229	10
252	10
265	10
271	10
286	10
361	30
362	10
363	10
376	10
