Mass Spectrum: 2,7-Methanonaphthalene, 1,2,4a,7,8,8a-hexahydro-
Formula: C11H14
CAS: 58008-61-0
Molecular weight: 146
m/z	intensity
27	108
28	38
29	21
38	26
39	319
40	52
41	210
42	19
43	25
44	62
50	69
51	207
52	86
53	174
54	25
55	52
57	22
58	32
62	28
64	58
65	207
66	188
67	285
68	638
69	55
70	17
71	39
76	23
77	428
78	396
79	999
80	860
81	179
89	40
90	8
91	844
92	889
93	97
102	28
103	133
104	352
105	854
106	96
115	173
116	95
117	389
118	138
119	23
127	32
128	84
129	71
130	36
131	250
132	29
145	42
146	555
147	80
148	22
