Mass Spectrum: 2H-Pyrano[3,2-d]-m-dioxin, 4,4a,6,7,8,8a-hexahydro-2-phenyl-6-benzyloxy-7-one oxime-
Formula: C20H21NO5
CAS: 58006-36-3
Molecular weight: 355
m/z	intensity
15	5
19	2
26	2
27	12
28	7
29	19
30	3
31	5
37	1
38	3
39	27
40	6
41	29
42	26
43	21
44	8
45	14
46	1
47	4
49	1
50	10
51	33
52	11
53	12
54	13
55	16
56	4
57	10
58	2
60	1
61	1
62	2
63	10
64	5
65	55
66	8
67	4
68	20
69	5
70	10
71	4
72	1
73	2
74	2
75	2
77	100
78	26
79	73
80	10
81	3
82	4
83	3
84	5
85	1
86	1
87	1
89	20
91	999
92	142
93	7
94	1
95	2
96	14
97	3
98	7
99	4
100	3
101	6
102	1
103	2
105	101
106	21
107	52
108	16
109	2
110	2
111	2
112	5
113	1
114	4
115	2
116	2
117	2
118	1
119	3
120	1
121	1
122	2
123	2
124	3
126	36
127	5
128	19
129	2
130	1
131	1
132	1
133	1
134	2
135	1
141	15
142	25
143	3
144	1
145	1
146	1
149	119
150	12
151	1
158	2
159	1
160	3
161	1
165	1
167	2
168	1
170	4
171	1
172	1
174	1
175	1
177	2
178	1
179	2
186	1
188	1
190	3
191	1
193	1
197	12
198	2
201	1
202	11
203	2
204	1
206	54
207	8
208	1
218	3
219	1
220	1
232	24
233	29
234	5
235	1
246	7
247	11
249	336
250	52
251	7
252	1
264	1
269	1
292	1
338	9
339	2
354	5
