Mass Spectrum: Benzaldehyde, (1,4-dihydro-6-methyl-4-oxo-2-pyrimidinyl)hydrozone
Formula: C12H12N4O
CAS: 58010-88-1
Molecular weight: 228
m/z	intensity
50	72
51	275
52	60
53	35
54	211
55	99
56	24
57	15
62	30
63	137
64	87
65	99
66	34
67	248
68	278
69	338
75	26
76	61
77	340
78	56
82	65
83	259
84	612
85	68
89	390
90	746
91	121
92	44
93	57
94	41
96	137
97	580
98	33
103	72
104	143
105	30
108	58
109	339
110	53
111	59
114	33
116	34
117	77
118	30
119	158
120	35
123	20
124	10
125	999
126	78
130	15
131	12
133	12
144	26
150	13
151	987
152	87
161	14
185	37
199	40
200	18
227	304
228	893
229	137
230	11
