Mass Spectrum: Cyclohexanepropionic acid, 4-oxo-, ethyl ester
Formula: C11H18O3
CAS: 58012-66-1
Molecular weight: 198
m/z	intensity
25	24
27	340
28	165
29	572
30	17
31	21
38	7
39	329
40	70
41	795
42	182
43	214
44	21
45	94
50	7
51	31
52	18
53	168
54	167
55	978
56	96
57	69
58	14
59	14
60	179
61	130
62	5
63	7
65	39
66	28
67	239
68	143
69	391
70	363
71	93
72	11
73	252
74	75
75	17
77	39
78	16
79	172
80	34
81	202
82	101
83	169
84	16
85	18
87	12
88	205
89	35
91	53
92	81
93	88
94	18
95	168
96	513
97	999
98	111
99	32
100	7
101	372
102	51
105	43
106	56
107	145
108	31
109	245
110	573
111	273
112	23
113	32
114	48
115	31
123	119
124	280
125	531
126	55
127	11
128	15
129	179
130	11
133	34
134	99
135	25
137	9
141	17
142	51
143	6
148	20
151	37
152	626
153	197
154	20
155	11
156	8
169	48
170	8
180	276
181	34
198	93
199	17
