Mass Spectrum: Benzenamine, 4-methyl-2-[(4-methylphenyl)azo]-
Formula: C14H15N3
CAS: 58010-91-6
Molecular weight: 225
m/z	intensity
34	3
37	0
38	11
39	98
40	68
41	36
42	11
43	9
44	34
45	1
50	19
51	65
52	59
53	50
54	19
55	4
56	3
57	5
62	8
63	44
64	27
65	193
66	37
67	9
68	1
69	4
70	1
71	2
74	2
75	4
76	18
77	255
78	99
79	196
80	29
81	3
82	0
83	2
84	1
87	0
89	40
90	28
91	535
92	52
93	4
94	1
97	1
102	3
104	117
105	95
106	999
107	107
108	4
111	4
112	21
113	1
115	3
116	0
117	0
119	59
120	8
121	2
122	2
123	0
127	2
128	4
129	1
130	0
131	0
132	0
134	112
135	9
139	0
140	0
141	1
142	0
149	0
151	1
152	6
153	4
154	4
155	1
156	1
165	9
166	6
167	14
168	2
171	1
177	0
178	7
179	9
180	48
181	43
182	15
183	1
192	1
193	5
194	33
195	13
196	62
197	16
198	0
207	0
208	2
209	3
210	3
224	150
225	757
226	100
227	7
