Mass Spectrum: 1-.beta.-Hydroxyethyl-5-amino-4-pyrazolecarboxylic acid ethyl ester
Formula: C8H13N3O3
CAS: 58046-49-4
Molecular weight: 199
m/z	intensity
41	109
42	127
43	144
44	39
45	116
47	8
49	31
51	33
52	266
53	198
54	188
55	152
56	19
57	3
65	12
66	22
67	66
68	207
69	109
70	33
71	10
79	3
80	26
81	20
83	55
84	24
86	20
93	12
94	69
95	107
96	44
97	14
109	860
110	999
111	76
112	10
113	20
121	6
122	580
123	103
124	18
125	14
127	119
128	8
136	27
140	128
141	8
152	45
153	9
154	469
155	775
156	63
168	357
169	53
171	3
198	16
199	703
200	131
201	13
