Mass Spectrum: 2-Ethyl-5-nitro-1H-1,3-benzodiazole
Formula: C9H9N3O2
CAS: 5805-42-5
Molecular weight: 191
m/z	intensity
29	83
30	133
34	2
36	5
37	120
38	250
39	491
40	145
41	176
42	53
43	29
44	62
46	146
49	17
50	167
51	262
52	407
53	79
54	101
55	32
56	213
57	27
58	23
60	6
61	104
62	347
63	999
64	246
65	109
66	33
67	20
68	9
69	7
70	5
71	7
72	17
73	4
74	28
75	81
76	192
77	139
78	149
79	69
80	66
81	7
86	3
87	24
88	64
89	112
90	438
91	160
92	50
93	25
94	4
101	6
102	29
103	71
104	40
105	55
106	40
107	4
115	5
116	71
117	110
118	175
119	17
128	17
129	32
130	129
131	19
132	21
133	102
134	6
142	7
143	91
144	581
145	514
146	60
160	11
161	74
162	5
163	9
164	6
175	10
176	29
177	2
190	625
191	810
192	86
193	6
