Mass Spectrum: Benzenecarbothioamide, N-(1,1-dimethylethyl)-
Formula: C11H15NS
CAS: 58065-65-9
Molecular weight: 193
m/z	intensity
24	4
26	15
27	89
29	195
30	16
33	2
34	2
37	12
38	21
39	142
40	6
41	291
42	97
43	12
44	33
45	17
46	4
47	3
49	8
50	87
51	183
52	27
53	16
54	4
55	27
56	84
57	297
58	112
59	10
60	47
61	9
62	11
63	17
64	9
65	15
66	9
68	2
69	31
70	17
71	7
72	124
73	12
74	20
75	30
76	179
77	373
78	62
79	16
81	3
82	7
83	2
84	2
85	3
86	2
87	1
88	0
89	20
90	8
91	23
92	3
93	10
94	6
95	1
99	2
100	4
102	5
103	100
104	999
105	51
106	31
107	2
108	3
109	42
110	13
111	2
115	24
116	6
117	9
118	3
119	6
120	7
121	285
122	28
123	16
124	2
128	7
129	3
130	4
131	3
132	2
134	1
135	2
136	54
137	208
138	84
139	19
140	5
143	1
144	5
145	5
146	82
147	20
148	2
150	21
151	22
152	2
153	2
158	5
160	44
161	17
165	0
175	2
176	2
178	12
179	3
180	2
182	0
192	127
193	501
194	82
195	14
196	2
