Mass Spectrum: Xylitol, cyclic 1,2:3,5-bis(ethylboronate) 4-(diethylborinate)
Formula: C13H27B3O5
CAS: 58066-76-5
Molecular weight: 296
m/z	intensity
26	6
27	14
28	17
29	38
30	1
31	2
36	0
37	0
38	1
39	9
40	21
41	159
42	22
43	74
44	3
45	4
49	0
50	0
51	1
52	2
53	12
54	9
55	26
56	34
57	206
58	9
59	16
60	0
61	0
62	0
64	0
65	2
66	2
67	7
68	18
69	566
70	56
71	150
72	5
73	1
74	0
75	0
76	0
77	2
78	1
79	2
80	1
81	61
82	15
83	48
84	16
85	25
86	3
87	6
88	1
89	0
90	0
91	0
92	0
93	1
94	0
95	3
96	12
97	31
98	263
99	999
100	44
101	6
102	0
103	0
104	0
105	2
106	0
107	1
108	1
109	5
110	38
111	148
112	145
113	357
114	22
115	9
116	0
121	0
122	2
123	7
124	55
125	170
126	18
127	14
128	3
129	6
130	0
131	0
133	0
134	1
135	2
136	18
137	74
138	24
139	29
140	11
141	20
142	2
143	3
144	0
148	0
149	0
150	2
151	3
152	3
153	10
154	49
155	132
156	10
157	2
159	1
160	0
161	0
162	0
163	0
164	1
165	4
166	13
167	22
168	29
169	48
170	3
171	0
177	0
178	1
179	5
180	26
181	71
182	81
183	110
184	8
185	1
190	0
191	1
192	1
193	2
194	2
195	3
196	2
197	4
198	0
199	0
200	0
202	0
204	0
205	0
206	1
207	1
208	4
209	19
210	81
211	130
212	12
213	1
221	0
222	0
223	0
234	0
235	0
236	1
237	2
238	0
239	0
240	0
241	0
264	3
265	33
266	145
267	208
268	25
269	3
270	0
281	0
295	0
296	0
297	0
