Mass Spectrum: 3-Methyl-2-methoxycarbonylcyclopentanone
Formula: C9H14O3
CAS: 58073-90-8
Molecular weight: 170
m/z	intensity
26	20
27	168
29	461
30	19
31	163
38	2
39	121
40	53
41	536
42	38
43	191
44	31
45	119
46	30
51	8
52	8
53	109
54	32
55	208
56	66
57	34
58	20
59	50
60	25
61	16
65	11
66	10
67	63
68	130
69	940
70	63
71	38
72	7
73	23
77	11
79	25
80	8
81	67
82	125
83	125
84	15
85	27
86	42
87	999
88	67
89	7
91	7
94	5
95	41
96	267
97	182
98	26
99	55
100	13
101	12
107	4
109	310
110	25
111	9
113	43
114	33
115	521
116	37
123	33
124	310
125	477
126	41
127	43
128	11
141	17
142	417
143	44
152	8
153	11
155	71
170	85
171	16
