Mass Spectrum: 4,5,6,7-Tetrahydro-3-indolinone
Formula: C8H11NO
CAS: 58074-25-2
Molecular weight: 137
m/z	intensity
27	20
28	40
30	40
39	40
40	10
41	50
42	20
43	150
50	20
51	40
52	60
53	50
54	40
55	10
58	20
65	20
66	10
67	150
68	30
77	60
78	30
79	80
80	110
81	300
82	80
91	10
93	20
94	80
95	10
106	20
108	330
109	999
110	70
120	30
136	160
137	880
138	100
