Mass Spectrum: L-Phenylalanine, N-(trifluoroacetyl)-, 1-methylbutyl ester
Formula: C16H20F3NO3
CAS: 58072-48-3
Molecular weight: 331
m/z	intensity
40	20
41	144
42	64
43	884
44	39
45	45
51	47
53	5
55	119
56	8
58	13
59	20
63	52
65	96
69	98
70	126
71	162
72	10
73	38
77	114
78	90
79	13
87	22
88	32
89	29
90	21
91	999
92	110
96	11
102	31
103	249
104	91
105	18
107	10
118	33
119	123
120	31
128	11
131	82
132	5
146	33
147	144
148	980
149	270
150	11
171	4
178	15
198	51
199	6
214	6
215	17
216	267
217	37
218	166
219	18
244	37
261	15
