Mass Spectrum: 2-Pyridinemethanamine, 4-methyl-.alpha.-phenyl-
Formula: C13H14N2
CAS: 58088-62-3
Molecular weight: 198
m/z	intensity
41	90
44	7
49	2
50	5
51	112
52	9
54	2
63	61
65	374
66	46
77	66
79	113
89	38
91	392
92	32
93	469
94	14
98	51
104	14
106	999
107	17
119	17
121	161
154	6
167	3
168	1
170	19
180	6
181	9
182	3
195	16
197	327
198	705
199	38
