Mass Spectrum: 1,3-Oxathiane, 2,2-dimethyl-
Formula: C6H12OS
CAS: 5809-68-7
Molecular weight: 132
m/z	intensity
26	60
27	200
28	60
29	80
31	120
39	340
40	60
41	999
42	110
43	780
44	30
45	340
46	940
47	150
48	50
55	40
57	50
58	130
59	670
60	30
61	40
71	50
73	120
74	420
75	230
76	100
85	30
87	20
88	20
89	30
117	350
118	20
119	20
132	579
133	40
134	30
