Mass Spectrum: Urea, 1-methylcyclopropyl-
Formula: C5H10N2O
CAS: 58102-14-0
Molecular weight: 114
m/z	intensity
33	8
34	23
35	2
36	10
37	6
38	14
39	88
40	427
41	139
42	902
43	443
44	461
45	19
46	5
48	0
49	1
50	10
51	13
52	20
53	36
54	50
55	49
56	344
57	54
58	8
60	10
65	2
67	4
68	9
70	915
71	999
72	53
73	19
77	2
78	1
79	7
80	12
81	10
82	18
83	5
84	8
85	5
87	13
90	0
91	6
92	0
93	0
95	7
96	1
97	9
98	21
99	29
100	4
105	6
106	1
107	2
111	4
112	4
113	3
114	26
115	1
