Mass Spectrum: Bicyclo[2.2.1]heptan-2-one, 1,3,7,7-tetramethyl-
Formula: C11H18O
CAS: 5811-48-3
Molecular weight: 166
m/z	intensity
32	40
39	140
41	70
42	30
43	70
51	30
53	90
54	30
55	300
57	30
65	30
67	140
68	30
69	200
70	30
77	50
79	50
81	100
82	150
83	690
84	40
91	40
93	80
94	40
95	999
96	110
97	120
107	20
108	590
109	180
110	120
111	40
123	40
124	50
137	30
138	20
151	40
166	420
167	40
