Mass Spectrum: 2-Methyl-4-phenylthiolane, 1,1-dioxide
Formula: C11H14O2S
CAS: 58121-30-5
Molecular weight: 210
m/z	intensity
39	29
40	6
41	26
42	19
48	11
50	18
51	45
52	11
53	6
55	11
62	7
63	22
64	29
65	34
67	10
68	5
74	14
75	9
76	15
77	96
78	129
79	13
89	21
90	4
91	395
92	49
101	5
102	46
103	188
104	999
105	169
106	9
114	11
115	79
116	38
117	217
118	56
119	6
126	3
127	11
128	31
129	38
130	19
131	51
132	6
143	11
144	44
145	599
146	118
147	7
210	41
211	11
212	2
