Mass Spectrum: 3-Phenylthiane,S-oxide
Formula: C11H14OS
CAS: 58121-26-9
Molecular weight: 194
m/z	intensity
38	22
39	231
40	24
41	158
42	22
43	22
44	27
45	69
46	37
47	37
48	37
49	22
50	78
51	189
52	46
53	59
54	23
55	16
56	5
57	25
58	18
59	27
60	12
61	30
62	33
63	204
64	37
65	136
66	27
67	183
68	33
69	12
70	3
71	23
72	7
73	25
74	30
75	27
76	65
77	243
78	191
79	46
85	20
87	35
88	16
89	50
90	31
91	999
92	138
93	6
99	31
101	18
102	57
103	329
104	247
105	97
106	11
115	196
116	140
117	350
118	138
119	80
120	7
127	37
128	83
129	196
130	80
131	619
132	108
134	11
135	11
141	11
143	80
144	87
145	268
146	31
147	13
161	4
162	8
176	8
177	163
178	31
179	8
192	6
193	4
194	312
195	40
196	16
197	2
