Mass Spectrum: 1,3-Dioxolane, 2-(3-iodopropyl)-
Formula: C6H11IO2
CAS: 58135-25-4
Molecular weight: 242
m/z	intensity
15	0
16	0
17	0
25	0
26	18
27	165
28	7
29	100
30	3
31	36
33	0
37	1
38	6
39	72
40	11
41	99
42	32
43	60
44	16
45	288
46	5
47	1
49	0
50	2
51	4
52	1
53	10
54	3
55	19
56	0
57	15
58	4
59	0
60	0
61	0
63	0
65	0
66	0
67	1
68	1
69	3
70	1
71	62
72	2
73	999
74	29
75	3
77	0
78	0
84	0
85	16
86	23
87	5
88	3
91	1
92	0
95	0
97	0
98	0
99	0
100	0
101	0
104	0
107	0
110	0
111	0
112	0
113	2
114	0
115	199
116	14
117	1
118	0
119	0
120	0
127	20
128	6
129	0
140	0
141	7
142	1
153	0
154	8
155	14
156	0
197	1
198	1
241	11
242	6
243	0
