Mass Spectrum: 2-Thienylamide
Formula: C5H5NOS
CAS: 5813-89-8
Molecular weight: 127
m/z	intensity
38	100
39	600
44	180
45	190
50	50
53	40
54	40
57	180
58	130
81	70
82	80
83	130
111	999
112	70
113	60
127	750
128	50
129	40
