Mass Spectrum: 4-Thiazolecarboxylic acid, 4,5-dihydro-5,5-dimethyl-, methyl ester
Formula: C7H11NO2S
CAS: 58134-39-7
Molecular weight: 173
m/z	intensity
26	34
27	249
29	228
30	68
31	204
33	17
34	29
35	6
36	4
37	39
38	69
39	341
40	113
41	407
42	226
43	121
44	144
45	701
46	69
47	145
48	11
49	22
50	38
51	46
52	36
53	283
54	130
55	155
56	47
57	39
58	57
59	405
60	36
61	22
62	5
63	12
64	12
65	10
66	27
67	52
68	182
69	549
70	83
71	216
72	68
73	87
74	98
75	729
76	51
77	50
78	9
79	5
80	23
81	41
82	118
83	89
84	13
85	51
86	42
87	451
88	48
89	45
90	6
91	18
92	6
93	14
94	13
95	48
96	11
97	16
98	20
99	401
100	125
101	13
102	7
103	4
104	8
105	8
106	7
107	4
108	15
109	12
110	6
111	5
112	23
113	169
114	999
115	93
116	56
117	5
119	6
120	4
121	11
122	20
123	4
124	4
125	19
126	56
127	7
128	34
129	9
130	3
131	7
132	3
133	7
134	4
135	6
136	3
137	3
140	63
141	269
142	27
143	5
155	10
156	6
157	5
158	142
159	16
160	3
172	5
173	272
174	30
175	19
