Mass Spectrum: 12,14-Nonacosanedione
Formula: C29H56O2
CAS: 58141-94-9
Molecular weight: 436
m/z	intensity
100	999
169	160
183	160
220	190
222	30
225	140
239	430
240	90
253	340
278	210
281	410
296	250
309	180
418	60
436	80
