Mass Spectrum: N-Methyl-1-[4-chlorophenyl]-2-[4-piperidyl]-n-propanol
Formula: C15H22ClNO
CAS: 58158-39-7
Molecular weight: 267
m/z	intensity
42	999
43	634
44	567
45	18
46	1
48	1
50	30
51	77
52	22
53	58
55	401
56	52
57	172
58	232
59	9
60	1
61	2
62	4
63	13
65	16
67	42
68	29
69	2
70	494
71	133
72	8
75	49
77	552
78	61
79	28
80	14
81	25
82	53
83	42
84	40
85	12
86	6
89	15
91	17
93	5
94	27
96	588
98	781
99	645
100	40
102	7
103	9
105	31
106	14
107	12
108	12
109	9
111	82
113	159
115	91
116	18
117	17
118	1
120	3
122	11
123	19
124	48
126	570
127	48
128	9
129	6
130	2
131	4
133	8
134	1
135	0
136	1
137	4
139	71
141	283
143	134
144	6
145	1
147	1
149	11
150	0
151	14
152	16
153	6
154	3
155	9
156	7
157	3
159	3
160	0
161	2
163	2
165	4
167	5
168	3
169	2
170	1
171	0
175	0
177	1
178	2
179	1
180	1
181	0
192	1
193	0
195	1
206	1
208	0
214	0
215	0
216	0
221	1
222	0
232	1
233	1
234	1
236	0
248	5
249	13
250	41
252	13
254	3
262	0
263	0
265	3
266	80
267	269
269	84
271	0
