Mass Spectrum: Borinic acid, diethyl-, (2-ethyl-1,3,2-dioxaborolan-4-yl)methyl ester
Formula: C9H20B2O3
CAS: 58163-56-7
Molecular weight: 198
m/z	intensity
26	38
27	94
28	228
29	197
30	7
31	19
33	0
34	0
36	2
37	7
38	6
39	49
40	49
41	173
42	35
43	71
44	22
45	14
46	0
47	0
48	0
49	0
50	1
51	3
52	3
53	12
54	14
55	69
56	78
57	366
58	23
59	46
60	1
61	1
62	5
63	6
64	1
65	2
66	1
67	6
68	18
69	61
70	21
71	33
72	1
73	1
74	0
76	1
77	1
78	1
79	1
80	1
81	4
82	51
83	227
84	52
85	122
86	6
87	3
88	3
91	1
92	0
93	0
94	0
95	0
96	2
97	8
98	40
99	94
100	5
101	1
103	0
104	0
105	0
106	1
107	0
108	0
109	2
110	8
111	23
112	251
113	999
114	56
115	4
118	0
119	1
120	0
121	1
122	0
123	0
124	5
125	10
126	0
127	1
131	0
134	8
135	1
136	0
137	2
138	13
139	27
140	1
141	1
146	0
148	0
149	0
150	0
151	0
156	0
157	0
165	0
167	14
168	100
169	236
170	17
171	1
