Mass Spectrum: 1,3,2-Dioxaborolane-4-methanol, 2-ethyl-, acetate
Formula: C7H13BO4
CAS: 58163-59-0
Molecular weight: 172
m/z	intensity
26	16
27	68
28	12
29	83
30	2
31	18
36	0
37	3
38	3
39	31
40	16
41	32
42	79
43	999
44	34
45	31
50	0
51	1
52	2
53	9
54	9
55	26
56	25
57	73
58	6
59	2
60	0
61	15
62	0
63	0
64	0
65	0
66	0
67	2
68	7
69	16
70	36
71	26
72	2
73	28
74	86
75	4
76	0
79	0
80	1
81	1
82	7
83	30
84	36
85	9
86	4
87	3
93	0
95	0
96	2
97	22
98	196
99	620
100	36
101	49
102	2
103	0
108	0
109	1
110	14
111	94
112	185
113	25
114	2
115	1
116	0
117	1
126	0
127	2
128	3
129	13
130	2
131	0
140	0
141	2
142	6
143	24
144	1
145	0
156	0
157	1
173	0
