Mass Spectrum: Methyl 3,4-ethylidene-.alpha.-D-galactopyranoside
Formula: C9H16O6
CAS: 58165-67-6
Molecular weight: 220
m/z	intensity
40	20
41	319
42	47
43	329
44	53
45	549
53	30
54	13
55	199
56	53
57	319
58	23
59	139
60	99
61	199
62	20
68	26
69	189
70	99
71	499
72	35
73	199
74	149
75	50
81	40
83	109
84	14
85	109
86	659
87	499
88	38
97	80
98	109
99	99
100	19
101	999
102	66
103	30
104	13
109	23
111	13
113	40
115	37
116	80
117	27
127	46
129	53
130	7
131	40
133	7
141	3
142	13
143	1
144	119
145	46
146	6
147	15
157	14
158	3
159	13
171	9
173	7
176	2
189	14
205	6
219	14
