Mass Spectrum: L-Proline, ethyl ester
Formula: C7H13NO2
CAS: 5817-26-5
Molecular weight: 143
m/z	intensity
29	71
30	19
31	8
39	44
40	11
41	118
42	49
43	66
44	5
53	5
54	5
55	5
67	8
68	77
69	27
70	999
71	49
86	11
143	2
