Mass Spectrum: Nonacosane-8,10-dione
Formula: C29H56O2
CAS: 58170-84-6
Molecular weight: 436
m/z	intensity
27	10
29	32
41	172
42	46
43	434
44	13
53	11
54	19
55	305
56	75
57	830
58	98
59	31
67	91
68	29
69	238
70	56
71	334
72	25
79	29
80	24
81	109
82	50
83	158
84	91
85	215
86	22
93	17
94	42
95	97
96	42
97	168
98	96
100	999
101	75
108	126
109	136
110	39
111	69
112	36
113	198
114	28
121	26
122	11
123	69
124	102
125	55
126	75
127	897
128	139
135	25
137	37
138	81
139	20
140	7
142	126
143	18
151	51
152	11
153	11
154	11
155	17
166	83
167	20
169	295
170	36
179	10
184	275
185	112
186	13
197	99
208	15
222	19
223	8
225	7
226	26
240	8
253	9
276	84
277	27
291	9
292	7
293	6
294	19
295	62
296	12
309	8
316	4
319	22
320	6
334	73
335	17
336	4
337	67
338	15
352	17
353	9
365	21
379	3
394	5
418	34
419	12
421	2
422	1
435	2
436	17
437	4
438	1
