Mass Spectrum: 6,7-Dihydro-[1,2-e]-5H-pyrrolotetrazole
Formula: C4H6N4
CAS: 5817-87-8
Molecular weight: 110
m/z	intensity
26	500
27	600
28	999
29	150
30	20
37	80
38	140
39	950
40	150
41	330
42	220
43	30
44	20
49	30
50	130
51	170
52	140
53	900
54	980
55	820
56	50
57	20
58	10
66	10
67	280
68	20
81	180
82	50
110	420
111	40
