Mass Spectrum: Nonadecanamide
Formula: C19H39NO
CAS: 58185-32-3
Molecular weight: 297
m/z	intensity
26	4
27	81
28	33
29	207
30	18
31	1
37	0
38	3
39	56
40	3
41	422
42	98
43	608
44	78
45	3
46	1
50	0
51	2
52	2
53	25
54	66
55	308
56	104
57	430
58	24
59	999
60	100
61	5
62	1
65	3
66	3
67	41
68	26
69	153
70	131
71	130
72	417
73	58
74	3
75	0
77	3
78	0
79	12
80	8
81	31
82	67
83	115
84	59
85	65
86	49
87	6
91	5
92	0
93	10
94	9
95	18
96	101
97	186
98	56
99	28
100	20
101	11
107	6
108	6
109	8
110	118
111	78
112	29
113	16
114	42
115	15
116	1
121	5
122	11
123	5
124	80
125	33
126	20
127	11
128	37
129	5
133	1
135	3
136	6
137	2
138	45
139	14
140	15
141	6
142	8
143	1
147	3
150	3
151	0
152	38
153	9
154	12
155	4
156	6
157	1
164	1
166	29
167	7
168	11
169	2
170	4
178	0
180	24
181	10
182	6
183	0
184	4
185	0
191	1
194	25
195	10
196	5
198	5
204	1
206	0
207	2
208	26
209	13
210	4
212	4
213	1
220	0
221	0
222	35
223	14
224	5
226	3
236	35
237	12
238	6
240	3
250	26
251	7
252	0
254	12
255	2
264	3
265	0
268	6
278	2
279	7
280	2
281	5
296	1
297	14
298	3
