Mass Spectrum: 3-Pentenoic acid, 5-methoxy-, methyl ester
Formula: C7H12O3
CAS: 58185-66-3
Molecular weight: 144
m/z	intensity
25	0
26	0
27	111
28	14
29	41
30	4
31	28
33	7
36	0
37	2
38	5
39	79
40	4
41	408
42	29
43	81
44	2
45	39
46	0
47	19
48	0
49	1
50	7
51	13
52	9
53	80
54	56
55	121
56	22
57	18
58	12
59	148
60	4
61	1
62	0
63	0
64	0
65	0
66	0
67	1
68	1
69	12
70	2
71	999
72	52
73	6
74	5
75	92
76	4
77	0
78	0
79	0
80	1
81	14
82	12
83	13
84	147
85	32
86	5
87	8
88	1
90	0
91	3
92	0
95	0
96	0
97	44
98	2
99	1
100	0
101	11
102	2
103	0
111	5
112	6
113	45
114	49
115	4
116	1
117	2
129	54
130	3
131	0
143	1
144	6
145	0
