Mass Spectrum: 1-(O-Hydroxyphenyl)-2-(methylamino)propane
Formula: C10H15NO
CAS: 582-43-4
Molecular weight: 165
m/z	intensity
41	5
42	28
43	14
44	5
50	8
51	28
52	8
53	16
55	8
56	39
58	999
59	39
63	8
65	16
75	8
77	78
78	28
79	28
89	8
90	8
91	47
92	8
103	8
105	16
107	39
108	8
115	16
116	8
117	11
119	14
131	11
133	19
134	11
165	50
166	11
