Mass Spectrum: Octanenitrile, 8-(methylthio)-
Formula: C9H17NS
CAS: 58214-93-0
Molecular weight: 171
m/z	intensity
26	3
27	44
28	16
29	37
30	6
34	1
35	27
37	2
38	4
39	98
40	19
41	315
42	61
43	39
44	9
45	60
46	38
47	88
48	108
49	42
50	9
51	12
52	12
53	56
54	86
55	466
56	56
57	13
58	17
59	35
60	17
61	999
62	105
63	52
64	8
65	15
66	15
67	101
68	43
69	161
70	31
71	9
72	3
73	13
74	12
75	97
76	17
77	14
78	4
79	82
80	71
81	102
82	224
83	143
84	13
85	5
86	1
87	9
88	2
89	12
90	3
91	14
92	2
93	8
94	184
95	101
96	857
97	180
98	11
99	1
100	1
101	2
102	2
103	16
104	2
105	17
106	8
107	31
108	67
109	10
110	91
111	8
112	1
113	36
114	4
115	3
116	1
117	6
118	1
119	1
120	60
121	6
122	117
123	38
124	156
125	15
126	1
128	6
129	2
130	1
131	24
132	2
133	1
139	13
140	1
141	1
142	4
143	1
153	1
154	1
155	2
156	125
157	13
158	6
169	1
170	9
171	225
172	23
173	11
174	1
