Mass Spectrum: Nonanenitrile, 9-(methylthio)-
Formula: C10H19NS
CAS: 58214-94-1
Molecular weight: 185
m/z	intensity
26	3
27	52
28	19
29	54
30	7
34	1
35	29
37	2
38	3
39	106
40	22
41	404
42	81
43	56
44	11
45	59
46	39
47	91
48	110
49	49
52	9
53	61
54	109
55	487
56	92
57	33
58	17
59	34
60	19
61	999
62	129
63	54
64	9
65	18
66	15
67	137
68	83
69	239
70	31
71	9
72	6
73	14
74	12
75	108
79	66
80	111
81	134
82	191
83	244
84	27
85	8
87	28
88	3
89	16
90	4
91	25
92	5
93	60
94	136
95	84
96	881
97	124
98	8
99	1
100	2
101	3
103	27
104	3
107	7
108	185
109	77
110	292
111	31
112	2
114	1
117	17
118	2
119	22
120	10
121	22
122	107
123	12
124	22
125	2
127	6
129	2
131	5
132	1
134	72
135	8
136	107
137	13
138	235
139	23
140	2
141	1
142	3
145	24
146	3
153	13
156	4
169	3
170	66
171	7
172	3
184	13
185	234
186	27
187	12
188	2
