Mass Spectrum: Benzamide, N-(4-oxo-2-cyclohexen-1-yl)-
Formula: C13H13NO2
CAS: 58230-54-9
Molecular weight: 215
m/z	intensity
36	1
37	2
38	14
39	39
40	49
41	28
42	5
43	5
44	33
45	0
49	1
50	26
51	111
52	12
53	24
54	8
55	11
56	3
57	3
61	5
63	3
65	13
66	47
67	12
68	3
69	1
70	1
71	1
73	2
74	5
75	5
76	16
77	487
78	35
79	63
80	22
81	2
82	10
83	2
84	1
85	0
91	1
92	3
93	1
94	129
95	22
96	3
97	0
103	4
104	10
105	999
106	79
107	5
109	1
110	54
111	4
112	3
115	0
121	1
122	399
123	32
124	1
129	1
130	3
131	1
146	0
158	1
159	27
160	3
172	2
173	3
186	1
187	19
188	2
197	0
214	9
215	74
216	11
