Mass Spectrum: 5-Chloro-3-methyl-2-pyridyl .alpha.-toluenesulfonate
Formula: C13H12ClNO3S
CAS: 58236-63-8
Molecular weight: 297
m/z	intensity
41	19
42	7
43	7
44	2
45	3
47	48
48	25
49	23
50	2
51	17
52	25
53	7
54	3
55	10
56	4
57	4
58	0
60	4
61	11
62	13
63	48
64	6
65	201
66	9
67	6
68	2
69	4
70	4
71	2
72	3
73	7
74	4
75	5
76	5
77	7
78	27
79	8
80	8
81	1
82	6
83	10
84	3
86	1
87	49
88	27
89	52
91	999
92	91
93	4
95	1
96	1
97	2
98	1
99	4
100	1
101	1
105	2
106	2
107	2
108	2
109	1
111	1
112	1
114	34
115	6
116	12
117	2
121	1
124	0
125	1
126	8
127	45
128	12
129	14
130	3
133	0
139	1
140	0
142	31
143	41
144	12
145	13
146	0
147	0
148	1
149	2
154	0
155	0
156	7
157	0
158	2
167	0
168	1
170	1
180	1
181	0
182	0
196	0
198	16
199	2
200	4
201	0
202	0
204	0
206	0
214	2
215	2
216	7
217	1
218	3
232	63
233	73
234	29
235	22
236	3
242	0
261	0
296	1
297	82
298	13
299	33
300	4
301	1
