Mass Spectrum: 3,5-Dichloro-6-methyl-2-pyridyl .alpha.-toluenesulfonate
Formula: C13H11Cl2NO3S
CAS: 58236-68-3
Molecular weight: 331
m/z	intensity
41	44
42	58
43	14
44	13
45	11
47	17
48	48
49	52
50	54
51	121
52	46
53	21
54	7
55	3
57	9
60	10
61	21
62	53
63	126
64	78
65	229
66	13
67	2
69	2
71	14
72	38
73	19
74	14
75	12
76	21
77	34
78	23
79	9
81	57
82	1
83	5
84	18
85	9
86	21
87	20
88	9
89	76
91	999
92	70
93	2
95	0
96	1
97	5
98	8
99	4
100	3
101	0
102	0
103	0
104	2
105	9
107	32
108	1
109	14
110	1
111	1
112	12
114	30
115	3
116	8
117	0
119	0
121	4
123	3
124	3
125	1
126	1
127	0
133	1
135	1
141	0
142	3
143	0
144	0
148	31
149	11
150	23
151	7
152	5
153	1
161	2
162	1
163	1
164	0
165	2
166	1
167	0
172	20
173	1
174	1
176	1
177	32
178	0
179	29
180	4
181	7
182	0
190	0
192	0
232	3
234	0
252	0
262	0
266	0
267	9
268	1
269	6
270	1
271	0
331	1
333	0
