Mass Spectrum: 3,5-Dichloro-2-pyridyl 2-chloro-.alpha.-toluenesulfonate
Formula: C12H8Cl3NO3S
CAS: 58236-41-2
Molecular weight: 351
m/z	intensity
41	1
42	0
43	3
44	4
45	2
47	4
48	10
49	10
50	22
51	36
52	10
53	13
54	3
55	4
56	0
57	0
60	11
61	14
62	66
63	214
64	132
65	79
66	7
67	8
69	5
71	21
72	85
73	130
74	56
75	84
76	18
77	33
78	7
79	6
81	63
83	16
84	25
85	23
86	25
87	15
89	293
90	86
91	29
92	4
93	1
94	3
95	2
96	2
97	9
98	6
99	90
100	29
101	33
102	11
103	1
105	5
107	70
108	23
109	30
110	16
111	15
112	7
113	5
114	1
115	1
119	1
121	2
122	5
123	5
125	999
127	389
128	3
130	2
131	1
134	49
135	82
136	33
137	44
139	16
141	6
143	2
144	0
146	2
147	0
148	1
149	0
150	0
152	0
153	0
154	0
155	0
162	3
163	76
165	46
167	8
172	3
178	1
188	1
206	16
208	6
215	0
217	0
249	1
252	30
254	23
255	2
256	3
