Mass Spectrum: 3,5-Dichloro-2-pyridyl 3-fluoro-.alpha.-toluenesulfonate
Formula: C12H8Cl2FNO3S
CAS: 58236-48-9
Molecular weight: 335
m/z	intensity
41	8
42	5
43	14
44	17
45	4
47	75
48	34
49	175
50	79
51	69
52	20
53	40
54	11
55	6
57	39
59	24
60	28
62	71
63	84
64	96
65	23
66	7
67	25
69	22
71	64
72	157
73	164
74	56
75	64
76	18
77	6
78	4
79	2
80	4
81	22
83	149
84	73
85	19
86	54
87	10
88	11
89	35
90	15
91	7
92	2
93	1
94	1
95	3
96	3
97	6
98	22
99	21
100	79
101	8
102	20
103	1
107	157
108	45
109	999
110	85
111	8
112	8
113	1
115	0
119	2
120	1
121	1
122	0
123	2
124	2
125	3
127	4
128	17
129	2
130	7
134	66
135	270
136	40
137	116
139	31
140	1
143	0
145	0
146	3
147	12
148	6
149	10
150	4
151	2
152	0
163	239
165	138
166	10
167	24
169	18
171	18
172	2
176	3
178	2
180	0
190	4
206	0
217	0
236	4
238	1
242	0
250	2
252	2
254	1
256	0
270	20
271	39
272	11
273	22
274	5
275	4
276	0
335	13
336	2
337	10
338	1
339	2
