Mass Spectrum: 3-Bromo-5-chloro-2-pyridyl alpha-toluenesulfonate
Formula: C12H9BrClNO3S
CAS: 58236-60-5
Molecular weight: 361
m/z	intensity
41	27
42	5
43	7
44	6
45	9
47	28
48	34
49	103
50	44
51	86
52	26
53	20
54	3
55	2
56	1
57	1
58	1
59	2
60	6
61	7
62	35
63	96
64	77
65	196
66	12
67	2
68	0
69	2
71	13
72	56
73	35
74	19
75	15
76	8
77	12
79	19
81	54
82	4
83	4
84	40
86	37
87	4
88	6
89	65
90	12
91	999
92	69
93	4
95	2
97	0
98	8
99	4
100	31
101	3
102	7
103	0
104	2
105	3
106	2
107	3
109	2
110	1
111	0
112	0
115	2
116	7
117	5
118	6
119	3
120	0
121	1
126	0
127	6
128	10
129	4
130	4
131	1
142	1
143	0
144	2
145	0
146	1
150	1
151	16
152	4
153	21
154	4
155	4
156	0
165	1
172	24
173	1
174	1
178	19
179	25
180	26
181	29
182	6
183	5
189	0
190	0
191	1
192	2
193	2
194	2
206	1
207	37
209	42
211	11
218	0
262	0
264	0
296	5
297	13
298	8
299	14
300	3
301	3
361	2
363	3
365	0
