Mass Spectrum: 5,9-Methanobenzocyclooctene, 3-chloro-5,6,9,10-tetrahydro-5,7,8,9-tetramethyl-
Formula: C17H21Cl
CAS: 58241-05-7
Molecular weight: 260
m/z	intensity
15	88
27	470
28	88
29	500
39	735
40	176
41	999
42	117
43	176
50	88
51	235
52	117
53	352
54	88
55	264
63	235
65	176
67	176
69	117
75	88
77	264
78	88
79	147
89	205
91	264
93	88
105	117
115	382
116	117
117	88
119	147
121	88
125	147
126	88
127	176
128	235
129	147
135	205
139	147
141	264
142	117
149	88
152	147
153	205
155	117
156	117
165	147
177	88
178	117
179	88
190	117
191	264
245	441
246	88
247	147
260	441
261	117
262	176
