Mass Spectrum: 2-Cyclohexen-1-one, 3-[(4-chlorophenyl)methyl]-5,5-dimethyl-
Formula: C15H17ClO
CAS: 58240-97-4
Molecular weight: 248
m/z	intensity
27	98
28	98
29	87
39	505
40	44
41	263
43	33
50	54
51	131
52	44
53	142
55	153
56	87
57	142
62	33
63	164
64	44
65	87
67	670
68	33
73	33
74	33
75	65
76	33
77	175
78	44
79	87
80	33
83	65
89	263
90	98
91	98
93	54
95	98
99	87
101	44
102	54
103	33
113	33
114	54
115	274
116	54
123	33
125	560
126	65
127	230
128	373
129	999
130	120
139	33
141	54
149	87
150	33
151	54
152	44
153	33
157	549
158	87
162	33
163	65
164	98
165	54
166	33
191	87
192	769
193	120
194	241
195	33
205	54
233	33
248	329
249	65
250	120
