Mass Spectrum: Iron, tricarbonyl-chloro-.eta.-3-pentenyl-
Formula: C8H9ClFeO3
CAS: 58257-85-5
Molecular weight: 244
m/z	intensity
27	218
28	680
29	93
30	1
31	8
35	3
36	24
37	16
38	38
39	361
40	71
41	901
42	82
43	23
48	0
49	1
50	22
51	33
52	15
53	123
54	67
55	61
56	582
57	117
58	4
61	6
62	11
63	17
64	2
65	30
66	15
67	144
68	65
69	445
70	42
71	234
72	11
77	2
78	0
79	1
80	22
81	57
82	318
83	60
84	142
85	9
89	24
91	349
92	19
93	124
94	24
95	72
96	98
97	46
98	122
99	6
103	3
105	4
106	5
107	3
108	25
109	9
110	16
112	21
113	0
116	0
117	15
118	0
119	100
120	7
121	112
122	87
123	255
124	999
125	247
126	22
127	1
130	0
131	4
132	4
133	2
134	2
136	2
143	2
145	40
146	3
147	18
149	3
150	1
151	15
152	6
153	150
154	15
155	0
157	0
158	39
159	17
160	590
161	54
162	192
163	16
164	0
179	11
180	6
181	190
182	20
183	3
186	26
187	0
188	379
189	34
190	128
191	11
198	3
206	0
207	4
208	3
209	50
210	6
214	4
216	72
217	7
218	23
219	1
