Mass Spectrum: Ethanone, 1-(1-hydroxy-2,6,6-trimethyl-2,4-cyclohexadien-1-yl)-
Formula: C11H16O2
CAS: 58254-18-5
Molecular weight: 180
m/z	intensity
25	3
26	17
27	177
28	145
29	72
30	4
31	10
36	5
37	8
38	23
39	285
40	46
41	300
42	56
43	999
44	81
45	29
46	7
47	2
48	1
49	4
50	37
51	122
52	49
53	138
54	68
55	118
56	17
57	19
58	11
59	17
60	15
61	10
62	17
63	50
64	16
65	107
66	36
67	188
68	17
69	64
70	116
71	17
72	8
73	3
74	10
75	10
76	9
77	245
78	66
79	110
80	24
81	76
82	279
83	45
84	6
85	4
86	6
87	6
88	3
89	15
90	5
91	207
92	25
93	146
94	29
95	110
96	27
97	10
98	7
99	4
101	3
102	9
103	43
104	29
105	68
106	10
107	148
108	40
109	210
110	23
111	37
112	7
113	3
114	3
115	24
116	9
117	26
118	8
119	188
120	70
121	113
122	390
123	132
124	16
125	25
126	5
127	2
128	6
129	3
130	2
131	4
132	4
133	15
134	4
135	35
136	72
137	902
138	120
139	14
140	2
141	3
142	1
143	1
144	2
145	3
146	4
147	189
148	27
149	9
150	6
151	5
152	6
153	12
154	4
160	2
161	5
162	62
163	12
164	2
165	13
166	3
176	1
177	1
178	3
179	3
180	21
181	5
