Mass Spectrum: 2-Propenoic acid, 3-(2-hydroxyphenyl)-
Formula: C9H8O3
CAS: 583-17-5
Molecular weight: 164
m/z	intensity
15	8
16	12
17	29
18	102
25	8
26	29
27	81
28	89
29	38
30	2
31	12
36	15
37	47
38	119
39	363
40	47
41	47
42	15
43	47
44	68
45	81
46	15
49	21
50	106
51	200
52	42
53	64
54	17
55	29
60	12
61	42
62	98
63	247
64	111
65	209
66	34
67	12
68	17
69	12
73	17
74	42
75	72
76	29
77	68
78	21
79	25
86	17
87	17
89	247
90	324
91	324
92	55
93	8
101	34
102	17
103	51
118	999
119	115
120	55
121	17
146	705
147	98
148	15
149	17
164	166
165	25
166	4
