Mass Spectrum: 2-Furancarboxylic acid, butyl ester
Formula: C9H12O3
CAS: 583-33-5
Molecular weight: 168
m/z	intensity
25	11
26	61
27	215
28	15
29	204
30	6
31	9
36	19
37	119
38	232
39	763
40	38
41	235
42	33
43	31
44	83
45	27
49	3
50	18
51	56
52	12
53	37
54	9
55	75
56	109
57	37
66	37
67	51
68	38
69	13
73	4
78	4
79	18
84	22
91	6
95	999
96	48
97	13
105	4
112	448
113	261
114	9
125	9
126	7
168	63
169	4
