Mass Spectrum: Glycine, N-(3-pyridinylcarbonyl)-
Formula: C8H8N2O3
CAS: 583-08-4
Molecular weight: 180
m/z	intensity
14	2
15	5
17	2
18	7
25	2
26	14
27	24
28	63
29	9
30	35
31	9
36	7
37	6
38	11
39	16
40	3
41	2
42	5
43	1
44	12
45	19
46	1
48	1
49	11
50	99
51	323
52	58
53	23
54	2
55	1
56	19
57	2
58	1
59	2
60	1
61	1
62	2
63	3
64	2
65	3
66	2
67	3
74	4
75	9
76	16
77	31
78	682
79	76
80	8
81	2
91	1
92	2
93	5
94	1
104	4
105	16
106	999
107	89
108	7
109	2
117	1
118	4
119	2
122	2
123	5
124	9
133	2
134	10
135	271
136	302
137	49
138	4
151	2
162	109
163	10
164	1
180	73
181	7
182	1
