Mass Spectrum: Cyclohexanone, 2-methyl-
Formula: C7H12O
CAS: 583-60-8
Molecular weight: 112
m/z	intensity
15	56
26	91
27	476
28	171
29	179
38	63
39	560
40	172
41	929
42	553
43	180
44	35
50	42
51	60
52	24
53	104
54	89
55	789
56	727
57	67
58	46
65	23
67	186
68	999
69	623
70	117
79	54
83	189
84	338
85	24
94	31
97	107
112	593
113	59
