Mass Spectrum: 2-Methyl-1-(dimethyl(chloromethyl)silyloxy)propane
Formula: C7H17ClOSi
CAS: 58307-44-1
Molecular weight: 180
m/z	intensity
39	35
41	81
42	21
43	94
44	27
45	77
47	32
55	54
56	21
57	35
58	34
59	49
60	13
61	44
63	35
65	23
72	20
73	22
74	21
75	999
76	77
77	44
78	22
79	177
80	27
81	122
82	13
83	28
88	23
89	17
93	41
95	81
96	10
97	27
107	154
108	20
109	71
115	14
123	19
130	19
131	610
132	77
133	29
137	42
139	15
