Mass Spectrum: 10-Hydroxy-2,2,9,9a-tetramethyl-1,2,5a,6,7,8,9,9a-octahydro-1,4-methano-3-benzoxepin-5(4H)-one
Formula: C15H24O3
CAS: 58307-75-8
Molecular weight: 252
m/z	intensity
55	470
67	280
69	310
81	420
83	260
85	230
95	560
109	250
110	390
113	999
121	60
139	140
149	80
167	30
237	80
252	300
