Mass Spectrum: Ethanol, 2-chloromethoxy-, benzoate
Formula: C10H11ClO3
CAS: 58305-05-8
Molecular weight: 214
m/z	intensity
15	5
26	5
27	20
29	25
30	6
31	9
36	1
37	1
38	5
39	10
42	3
43	14
44	8
45	6
49	53
50	59
51	187
52	10
53	3
57	28
58	2
62	2
63	5
64	1
65	3
73	4
74	16
75	14
76	29
77	437
78	33
79	12
81	3
92	367
93	13
94	121
95	3
103	1
104	8
105	999
106	84
107	5
120	2
121	1
122	101
123	23
124	1
135	2
139	1
149	66
150	24
151	2
179	4
