Mass Spectrum: 1-Dimethyl(chloromethyl)silyloxyhexane
Formula: C9H21ClOSi
CAS: 58307-48-5
Molecular weight: 208
m/z	intensity
39	48
41	152
42	38
43	149
44	32
45	92
47	28
55	214
56	42
57	28
58	24
59	76
61	58
63	28
65	25
69	27
71	18
72	21
73	21
74	22
75	999
76	77
77	40
78	20
79	143
80	25
81	104
83	107
85	23
87	18
88	22
89	152
90	95
93	39
95	70
97	27
101	38
107	71
108	12
109	29
115	17
123	23
137	26
158	18
159	723
160	100
161	35
