Mass Spectrum: Methylpent-4-enylamine
Formula: C6H13N
CAS: 5831-72-1
Molecular weight: 99
m/z	intensity
26	9
27	58
28	61
29	35
30	61
31	17
37	2
38	8
39	69
40	14
41	70
42	80
43	36
44	999
45	41
46	3
50	4
51	7
52	3
53	15
54	7
55	8
56	36
57	86
58	12
62	1
63	1
65	3
66	2
67	20
68	11
69	5
70	47
71	6
72	0
80	1
81	1
82	3
83	2
84	19
85	1
94	1
96	3
97	1
98	15
99	21
100	4
101	1
