Mass Spectrum: (1R,5R)-2-Methyl-5-((R)-6-methylhept-5-en-2-yl)bicyclo[3.1.0]hex-2-ene
Formula: C15H24
CAS: 58319-06-5
Molecular weight: 204
m/z	intensity
27	17
29	20
39	69
40	12
41	259
42	23
43	23
51	25
52	11
53	67
55	135
57	30
65	53
67	65
68	18
69	322
77	257
79	106
80	24
81	27
91	330
92	153
93	789
94	83
95	35
97	17
105	200
106	33
107	68
109	38
115	15
117	21
118	15
119	999
120	191
121	87
122	19
133	23
134	15
147	9
161	46
