Mass Spectrum: 3-Acetyl-4,5-dihydro-2-methyl-4-phenylfuran semicarbazone
Formula: C14H17N3O2
CAS: 5831-67-4
Molecular weight: 259
m/z	intensity
12	2
13	2
14	8
15	31
16	49
17	84
18	19
24	1
25	5
26	43
27	155
28	376
29	25
30	39
31	7
32	7
37	5
38	22
39	127
40	68
41	152
42	222
43	999
44	122
45	9
49	4
50	54
51	149
52	62
53	56
54	39
55	33
56	17
57	91
58	8
59	4
60	9
61	21
62	21
63	83
64	28
65	89
66	23
67	44
68	101
69	150
70	53
71	14
72	4
73	4
74	24
75	30
76	47
77	263
78	171
79	55
80	28
81	18
82	28
83	87
84	20
85	9
86	11
87	12
88	11
89	71
90	26
91	258
92	53
93	14
94	23
95	58
96	32
97	41
98	25
99	27
100	25
101	12
102	78
103	206
104	620
105	219
106	102
107	47
108	30
109	302
110	241
111	60
112	43
113	23
114	29
115	504
116	157
117	111
118	31
119	11
120	11
121	38
122	27
123	34
124	14
125	97
126	27
127	87
128	252
129	171
130	82
131	62
132	31
133	8
134	3
135	3
136	3
137	32
138	8
139	57
140	64
141	221
142	154
143	205
144	73
145	25
146	10
147	5
148	3
149	4
150	3
151	8
152	27
153	112
154	57
155	78
156	321
157	709
158	457
159	101
160	26
161	3
162	1
163	2
164	4
165	21
166	23
167	39
168	46
169	34
170	114
171	67
172	40
173	101
174	30
175	5
176	2
177	1
178	5
179	7
180	28
181	42
182	111
183	277
184	241
185	127
186	67
187	21
188	4
189	3
191	1
194	1
195	11
196	16
197	120
198	953
199	650
200	563
201	290
202	41
203	4
204	1
205	1
206	1
207	1
208	1
209	1
210	2
211	4
212	5
213	9
214	118
215	195
216	186
217	33
218	3
219	1
222	1
223	2
224	1
225	2
226	2
227	34
228	8
229	1
230	1
232	1
239	1
240	32
241	10
242	328
243	56
244	45
245	6
246	1
256	1
257	38
258	9
259	534
260	97
261	9
262	1
