Mass Spectrum: 1-Acetoxy-p-menth-3-one
Formula: C12H20O3
CAS: 58315-85-8
Molecular weight: 212
m/z	intensity
38	20
39	400
40	70
41	580
42	120
43	670
44	330
45	240
50	30
51	50
52	40
53	190
54	300
55	350
56	50
57	70
58	50
59	60
60	160
61	20
63	20
65	60
66	30
67	230
68	120
69	310
70	90
71	120
72	110
73	20
75	30
77	90
78	10
79	110
80	50
81	280
82	999
83	180
84	150
85	540
86	60
87	40
88	10
89	10
91	80
92	10
93	60
94	20
95	560
96	50
97	50
98	20
99	20
100	10
107	40
108	30
109	370
110	900
111	100
112	30
113	50
114	10
115	10
119	40
120	10
121	30
122	10
123	60
124	80
125	50
126	60
127	30
133	20
135	20
136	20
137	290
138	50
139	20
140	10
141	20
142	10
150	10
151	20
152	220
153	130
154	80
155	20
