Mass Spectrum: (1S,2R,5R)-2-Methyl-5-((R)-6-methylhept-5-en-2-yl)bicyclo[3.1.0]hexan-2-ol
Formula: C15H26O
CAS: 58319-05-4
Molecular weight: 222
m/z	intensity
27	45
29	52
30	2
39	118
40	22
41	522
42	33
43	537
44	17
45	32
50	6
51	29
52	18
53	157
54	33
55	388
56	59
57	94
58	34
65	60
66	32
67	362
68	82
69	999
70	97
71	260
72	89
77	133
78	26
79	240
80	41
81	182
82	861
83	202
84	71
85	22
91	129
92	60
93	479
94	169
95	283
96	40
97	95
98	27
105	126
106	26
107	239
108	70
109	314
110	60
111	203
112	30
113	11
115	9
119	601
120	99
121	598
122	373
123	216
124	21
125	36
126	7
133	82
134	80
135	34
136	23
137	182
138	103
139	42
140	28
147	38
148	42
150	9
151	71
152	13
153	10
154	10
161	97
162	17
164	7
165	10
166	6
179	21
180	3
182	1
189	43
190	6
204	95
205	19
207	127
208	21
222	14
223	2
