Mass Spectrum: 7-Oxabicyclo[4.1.0]hept-3-en-2-one, 5-hydroxy-3-(hydroxymethyl)-
Formula: C7H8O4
CAS: 5831-38-9
Molecular weight: 156
m/z	intensity
28	148
29	196
31	134
38	34
39	300
40	86
41	205
42	86
43	300
44	1
50	53
51	119
52	62
53	652
54	100
55	386
56	105
57	253
58	77
63	39
64	29
65	110
66	43
67	58
68	267
69	333
70	39
71	828
72	39
73	91
79	39
80	110
81	533
82	372
83	119
84	253
85	91
86	15
92	10
93	39
94	20
95	91
96	695
97	514
98	86
99	43
110	999
111	138
112	690
113	72
121	115
125	34
126	62
127	115
137	67
138	219
139	96
156	29
