Mass Spectrum: 3-Acetoxy-p-menthan-1-ol
Formula: C12H22O3
CAS: 58315-86-9
Molecular weight: 214
m/z	intensity
39	90
40	20
41	210
42	20
43	999
44	20
45	40
53	50
55	190
56	30
57	30
58	130
59	20
60	20
61	10
67	70
68	60
69	210
70	30
71	170
77	70
81	220
82	30
83	100
84	110
85	30
86	10
87	110
89	80
91	40
92	40
93	280
94	40
95	60
96	110
97	120
107	80
108	50
109	30
110	30
111	230
112	80
113	30
119	10
121	140
125	80
126	20
129	20
136	120
137	20
139	110
151	20
154	80
196	10
