Mass Spectrum: (1S,5S)-4-Methylene-1-((R)-6-methylhept-5-en-2-yl)bicyclo[3.1.0]hexane
Formula: C15H24
CAS: 58319-04-3
Molecular weight: 204
m/z	intensity
27	29
28	8
29	26
30	1
38	2
39	94
40	15
41	429
42	22
43	59
44	2
50	5
51	29
52	18
53	106
54	21
55	253
56	33
57	123
58	5
62	2
63	11
64	4
65	88
66	21
67	162
68	30
69	999
70	65
71	122
72	7
73	1
74	1
75	2
76	3
77	258
78	59
79	232
80	38
81	85
82	134
83	23
84	14
85	1
88	1
89	4
90	2
91	323
92	187
93	448
94	70
95	53
96	6
97	5
101	1
102	2
103	18
104	8
105	108
107	50
108	6
109	176
110	17
111	6
112	25
113	12
114	1
115	14
116	4
117	22
118	6
119	121
120	272
121	72
122	16
123	4
124	1
127	2
128	3
129	2
131	9
132	9
133	241
134	60
135	17
136	6
137	2
142	1
145	5
146	2
147	27
148	21
149	7
157	1
160	7
161	256
162	43
163	3
175	4
189	13
190	1
202	2
203	1
204	38
205	6
206	1
