Mass Spectrum: 5-Methyloxazolidine
Formula: C4H9NO
CAS: 58328-22-6
Molecular weight: 87
m/z	intensity
15	50
27	58
28	122
29	53
30	63
31	42
39	23
40	7
41	125
42	396
43	999
44	93
45	148
56	132
57	55
58	47
72	15
86	21
87	4
