Mass Spectrum: 2,2-Difluorotetralin
Formula: C10H10F2
CAS: 58325-19-2
Molecular weight: 168
m/z	intensity
41	20
42	38
43	5
44	17
45	16
46	10
47	14
48	7
49	54
50	165
51	344
52	73
53	24
54	3
55	5
56	18
57	68
58	57
59	13
60	18
61	30
62	97
63	245
64	186
65	93
66	9
67	6
68	8
69	16
70	26
71	9
72	16
73	63
74	93
75	120
76	80
77	223
78	290
79	20
80	5
81	25
82	12
83	45
84	28
85	11
86	38
87	37
88	28
89	101
90	41
91	254
92	24
93	10
94	16
95	14
96	24
97	5
98	15
99	30
100	11
101	52
102	79
103	294
104	999
105	122
106	9
107	22
108	7
109	65
110	6
111	4
112	9
113	12
114	23
115	321
116	83
117	105
118	32
119	15
120	45
121	18
122	62
123	11
124	1
125	38
126	27
127	143
128	134
129	82
130	38
131	21
132	6
133	260
134	40
135	21
136	12
137	2
138	10
139	9
140	61
141	10
142	2
143	4
144	19
145	59
146	427
147	688
148	762
149	142
150	49
151	37
152	9
153	15
154	10
155	2
156	2
157	0
158	1
159	0
160	0
161	0
162	0
163	0
164	0
165	1
166	27
167	96
168	792
169	96
170	5
171	1
