Mass Spectrum: 3-Benzoyl-1,1-diethylurea
Formula: C12H16N2O2
CAS: 58328-35-1
Molecular weight: 220
m/z	intensity
14	2
15	15
17	4
18	1
25	1
26	15
27	90
28	100
29	127
30	401
31	6
36	2
37	21
38	39
39	35
40	10
41	23
42	79
43	20
44	283
45	8
48	1
49	12
50	122
51	270
52	22
53	6
54	4
55	3
56	72
57	13
58	916
59	35
60	2
61	6
62	9
63	22
64	28
65	8
66	1
68	1
69	3
70	177
71	43
72	715
73	224
74	44
75	33
76	54
77	813
78	56
79	7
84	2
87	4
88	1
90	7
91	11
92	2
93	1
97	1
99	3
100	23
101	2
102	5
103	24
104	12
105	999
106	77
107	5
110	1
113	1
115	6
119	1
121	10
122	39
123	3
127	1
130	2
143	9
146	1
147	399
148	117
149	12
150	1
163	1
177	3
191	18
192	14
193	2
205	1
218	1
219	1
220	171
221	24
222	2
