Mass Spectrum: 4-(2-Methoxyphenyl)piperidine
Formula: C12H17NO
CAS: 58333-75-8
Molecular weight: 191
m/z	intensity
37	5
38	25
39	164
40	22
41	84
42	266
43	654
44	370
45	13
46	0
50	52
51	137
52	42
53	54
54	35
56	999
57	810
58	37
61	4
62	25
63	94
64	36
65	168
66	18
67	14
68	154
69	30
70	38
71	3
73	3
74	19
75	26
76	31
77	189
78	91
79	52
80	23
82	151
83	512
84	39
85	2
86	4
87	7
88	14
89	67
91	445
92	47
93	14
94	8
96	12
97	0
98	1
99	1
101	11
102	35
103	83
104	33
105	83
106	13
107	26
108	16
109	3
110	0
111	0
113	2
115	107
116	35
117	53
118	41
119	178
120	37
121	93
122	24
123	3
124	0
126	3
127	22
128	42
129	32
130	39
131	87
132	76
133	98
134	56
135	54
136	34
137	3
139	0
140	0
141	4
142	4
143	25
144	20
145	35
146	29
147	54
148	78
149	24
150	8
151	0
153	0
154	1
155	1
156	4
157	1
158	12
160	504
161	89
162	71
163	10
164	0
170	1
171	0
172	6
173	10
174	15
176	51
177	6
178	0
185	0
186	0
188	4
190	178
191	599
192	89
193	7
194	0
