Mass Spectrum: Ethyl bis(2,4-dinitrophenyl) acetate
Formula: C16H12N4O10
CAS: 5833-18-1
Molecular weight: 420
m/z	intensity
12	3
13	1
14	4
15	88
16	9
17	7
18	28
25	2
26	16
27	123
28	51
29	999
30	389
31	101
32	11
37	5
38	16
39	38
40	3
41	4
42	7
43	24
44	142
45	49
46	22
47	3
48	1
49	3
50	44
51	66
52	19
53	36
54	5
55	9
56	2
57	4
59	145
60	5
61	10
62	52
63	132
64	35
65	14
66	10
67	7
68	7
69	7
70	2
71	2
73	8
74	69
75	213
76	78
77	61
78	26
79	82
80	13
81	4
82	4
83	2
84	2
85	5
86	34
87	50
88	31
89	35
90	24
91	38
92	30
93	11
94	5
95	6
96	2
97	2
98	17
99	31
100	20
101	30
102	17
103	127
104	40
105	20
106	10
107	21
108	14
109	4
110	11
111	19
112	13
113	33
114	22
115	10
116	7
117	11
118	12
119	21
120	30
121	11
122	16
123	12
124	13
125	50
126	43
127	31
128	9
129	7
130	8
131	4
132	3
133	10
134	23
135	9
136	12
137	45
138	51
139	61
140	53
141	17
142	8
143	6
144	3
145	9
146	2
147	3
148	4
149	133
150	140
151	89
152	93
153	63
154	32
155	18
156	8
157	6
158	3
159	2
160	3
161	22
162	44
163	70
164	112
165	61
166	65
167	31
168	30
169	25
170	8
171	3
172	3
173	4
174	2
175	8
176	6
177	14
178	36
179	205
180	101
181	71
182	27
183	14
184	10
185	4
186	3
187	2
188	2
189	3
190	3
191	13
192	22
193	55
194	47
195	66
196	43
197	23
198	14
199	11
200	4
201	4
202	2
203	2
204	1
205	14
206	4
207	14
208	43
209	63
210	111
211	97
212	25
213	9
214	4
215	4
216	1
217	1
218	1
219	2
220	3
221	7
222	13
223	19
224	38
225	33
226	54
227	41
228	11
229	5
230	2
231	1
232	1
233	1
235	2
236	5
237	9
238	21
239	143
240	70
241	43
242	11
243	9
244	3
245	5
246	2
247	1
248	1
249	1
250	1
251	2
252	3
253	36
254	119
255	95
256	40
257	161
258	25
259	4
260	1
261	1
262	1
264	1
265	2
266	2
267	7
268	15
269	21
270	40
271	14
272	7
273	3
274	1
276	1
277	1
278	1
279	1
280	1
281	3
282	5
283	25
284	77
285	97
286	67
287	23
288	7
289	1
290	1
291	1
293	1
294	1
295	1
296	4
297	4
298	4
299	7
300	63
301	353
302	74
303	40
304	7
305	1
311	2
312	3
313	9
314	16
315	6
316	2
317	1
318	5
319	2
322	1
326	1
327	6
328	6
329	8
330	18
331	30
332	9
333	2
334	1
335	1
341	8
342	4
343	4
344	1
345	3
346	55
347	30
348	14
349	2
356	1
357	4
358	5
359	12
360	10
361	3
362	1
363	1
373	25
374	18
375	9
376	4
377	1
387	1
390	1
404	3
