Mass Spectrum: 1,3,4,6-Hexanetetrone, 1-(4-bromophenyl)-6-(4-chlorophenyl)-
Formula: C18H12BrClO4
CAS: 58330-15-7
Molecular weight: 406
m/z	intensity
39	67
42	38
43	36
50	167
51	119
53	38
62	38
63	133
64	39
69	999
70	74
74	100
75	333
76	190
77	119
89	286
90	214
91	38
99	52
101	148
102	149
105	57
111	250
113	83
118	214
125	90
127	30
136	67
139	338
140	33
141	112
146	62
154	133
155	138
156	44
157	138
169	19
171	19
180	33
181	975
182	143
183	365
184	71
185	165
198	77
200	77
223	239
225	644
227	528
228	81
267	184
269	184
406	13
408	19
410	5
