Mass Spectrum: (1R,4R)-1-methyl-4-(6-Methylhept-5-en-2-yl)cyclohex-2-enol
Formula: C15H26O
CAS: 58334-55-7
Molecular weight: 222
m/z	intensity
26	1
27	24
29	31
30	1
31	2
37	1
38	2
39	83
40	18
41	412
42	28
43	253
44	6
45	17
46	1
50	6
51	24
52	12
53	90
54	20
55	257
56	57
57	81
58	10
62	2
63	8
64	3
65	61
66	23
67	190
68	38
69	999
70	79
71	89
72	8
73	1
74	1
75	2
76	2
77	209
78	41
79	184
80	29
81	103
82	131
83	52
84	35
85	4
89	4
90	2
91	215
92	114
93	398
94	199
95	182
96	45
97	25
98	3
99	2
102	2
103	12
104	5
105	140
106	38
107	100
108	30
109	251
110	43
111	39
112	25
113	14
114	1
115	12
116	3
117	13
118	10
119	635
120	151
121	180
122	54
123	152
124	15
125	4
127	1
128	3
129	2
132	8
133	140
134	63
135	36
136	12
137	163
138	124
139	14
140	1
147	46
148	64
149	23
150	4
151	30
152	6
160	4
161	143
162	32
163	6
164	3
165	3
166	2
175	8
176	2
179	10
180	3
189	55
190	9
193	1
194	1
203	1
204	126
205	20
206	3
207	97
208	15
209	1
221	1
222	31
223	5
