Mass Spectrum: Dimethylphosphinic azide
Formula: C2H6N3OP
CAS: 58347-13-0
Molecular weight: 119
m/z	intensity
14	64
15	128
27	48
28	960
29	96
42	64
43	999
44	48
45	48
46	32
47	320
49	145
59	24
61	20
62	24
76	32
77	999
78	40
79	24
81	48
104	270
119	420
