Mass Spectrum: 1,3,7,7-Tetramethyl-9-oxo-2-oxabicyclo[4.4.0]decane
Formula: C13H22O2
CAS: 5835-18-7
Molecular weight: 210
m/z	intensity
39	170
41	530
43	999
53	140
55	470
67	350
68	120
69	650
81	140
82	230
83	330
85	100
95	360
96	200
110	220
111	360
123	100
138	140
153	890
154	100
195	620
196	180
210	100
