Mass Spectrum: Butanoic acid, 4-oxopentyl ester
Formula: C9H16O3
CAS: 58371-97-4
Molecular weight: 172
m/z	intensity
33	45
34	3
36	1
39	81
40	85
41	129
43	999
45	10
50	0
51	2
53	5
55	42
57	23
58	42
59	8
60	7
61	1
67	3
69	24
71	331
73	5
79	0
81	0
83	41
84	74
85	96
87	16
88	34
89	55
90	1
91	0
95	1
97	0
99	10
101	148
108	3
109	7
114	3
115	9
122	3
128	3
129	3
130	1
131	0
