Mass Spectrum: 1-cyclobutylcyclobutene
Formula: C8H12
CAS: 58372-37-5
Molecular weight: 108
m/z	intensity
51	100
52	160
53	80
54	30
65	60
66	20
67	40
77	150
78	90
79	999
80	760
81	50
91	50
93	70
108	60
109	5
