Mass Spectrum: 2-Butenoic acid, 4-oxo-, methyl ester, (E)-
Formula: C5H6O3
CAS: 5837-72-9
Molecular weight: 114
m/z	intensity
13	2
14	3
15	73
24	3
25	36
26	255
27	418
29	243
30	12
31	48
36	3
37	28
38	38
39	83
40	6
41	36
42	82
43	17
44	9
45	30
52	8
53	185
54	167
55	999
56	85
57	23
58	35
59	184
60	5
68	23
69	76
70	128
71	13
81	8
82	82
83	965
84	39
85	586
86	39
87	9
99	43
100	2
113	151
114	293
115	33
116	3
