Mass Spectrum: Methyl (+-)-2-hydroxy-3-butenoate
Formula: C5H8O3
CAS: 5837-73-0
Molecular weight: 116
m/z	intensity
13	1
14	5
15	98
16	2
17	1
18	3
25	5
26	43
27	174
28	82
29	408
30	23
31	193
32	17
33	63
36	2
37	12
38	24
39	73
40	14
41	18
42	10
43	21
44	11
45	59
46	2
47	1
50	1
51	1
52	1
53	10
54	4
55	163
56	106
57	999
58	65
59	186
60	16
61	21
63	2
65	1
66	1
67	2
68	16
69	6
70	1
71	19
72	2
73	4
74	4
75	5
81	2
82	1
83	9
84	387
85	24
86	3
87	170
88	9
89	4
90	4
91	1
98	1
99	24
100	8
101	6
113	4
114	4
115	8
116	7
117	2
