Mass Spectrum: 2H-Benzotriazole, 2-(2-methoxy-5-methylphenyl)-
Formula: C14H13N3O
CAS: 58380-86-2
Molecular weight: 239
m/z	intensity
33	10
34	18
36	4
37	35
38	78
39	422
40	182
41	86
42	24
43	19
44	56
45	8
46	1
48	2
50	110
51	193
52	139
53	76
54	20
55	19
56	4
57	6
58	1
59	2
60	4
61	11
62	43
63	139
64	188
65	680
66	142
67	14
68	6
69	5
70	6
71	3
73	0
74	10
75	26
76	85
77	318
78	143
79	92
80	16
81	4
82	1
83	5
84	9
85	2
86	2
87	4
88	9
89	45
90	65
91	167
92	335
93	169
94	59
95	7
97	4
98	4
99	0
101	3
102	8
103	17
104	118
105	131
106	118
107	94
108	8
110	1
111	0
112	3
113	2
114	2
115	23
116	15
118	999
119	592
120	157
122	344
123	25
124	2
125	4
126	3
127	6
128	10
129	2
130	1
131	2
132	13
133	39
134	161
135	23
136	1
139	8
140	12
141	9
142	5
143	0
144	0
145	0
151	5
152	12
153	16
154	8
155	2
159	0
160	0
164	0
165	6
166	24
167	66
168	22
169	5
170	2
171	1
177	0
178	4
180	40
181	11
182	9
183	9
184	2
193	4
194	12
195	27
196	33
197	10
198	3
199	8
207	2
208	4
209	16
210	25
211	9
212	1
222	39
223	9
224	12
225	39
226	4
235	0
236	8
239	519
240	67
241	5
