Mass Spectrum: (+)-2,3-O-Benzylidene-D-threitol
Formula: C11H14O4
CAS: 58383-35-0
Molecular weight: 210
m/z	intensity
15	16
16	2
17	3
18	13
19	45
20	2
26	10
27	94
29	116
30	10
31	211
32	5
36	2
37	3
38	11
39	69
40	8
41	102
42	62
43	109
44	34
45	115
46	2
47	16
49	3
50	60
51	175
52	45
53	17
54	3
55	31
56	9
57	76
58	8
59	12
60	2
61	9
62	15
63	51
64	21
65	24
66	4
68	2
69	136
70	48
71	18
73	51
74	18
75	14
76	22
77	545
78	198
79	743
80	49
85	2
86	4
87	30
88	3
89	158
90	128
91	394
92	34
93	4
94	2
101	10
102	3
103	31
104	59
105	638
106	89
107	999
108	78
109	5
115	2
118	2
119	41
120	11
121	10
122	11
123	141
124	13
131	23
132	20
133	70
134	5
147	16
148	18
149	10
150	6
162	3
177	2
178	3
179	415
180	44
181	4
209	728
210	178
211	20
212	2
