Mass Spectrum: 2-Propanol, 1,3-dimercapto-
Formula: C3H8OS2
CAS: 584-04-3
Molecular weight: 124
m/z	intensity
41	156
42	74
43	420
45	755
46	78
47	902
48	250
53	3
55	11
57	85
59	999
60	31
61	131
62	3
63	15
64	12
65	2
66	3
67	0
69	17
72	161
73	241
75	17
77	419
78	36
79	14
80	26
82	6
83	5
91	4
92	3
104	3
105	3
106	375
107	37
108	23
109	1
122	6
123	15
124	49
125	6
