Mass Spectrum: Hexane, 2,3-dimethyl-
Formula: C8H18
CAS: 584-94-1
Molecular weight: 114
m/z	intensity
26	5
27	145
29	120
30	1
37	1
38	3
39	63
40	9
41	251
42	164
43	999
44	21
50	1
51	4
52	1
53	12
54	3
55	172
56	8
57	149
58	4
63	0
65	1
66	0
67	2
68	0
69	8
70	502
71	379
72	13
77	0
79	0
83	0
84	1
85	7
86	0
99	1
114	7
115	0
