Mass Spectrum: Diazene, bis(2-methylphenyl)-
Formula: C14H14N2
CAS: 584-90-7
Molecular weight: 210
m/z	intensity
39	170
41	60
51	90
63	90
65	420
66	30
89	90
90	70
91	999
92	90
119	110
152	80
165	80
166	70
167	80
195	30
210	360
211	60
