Mass Spectrum: 3-Bromo-5,5-dimethyl-2,4-imidazolidinedione
Formula: C5H7BrN2O2
CAS: 58402-65-6
Molecular weight: 206
m/z	intensity
13	1
14	6
15	98
16	3
25	2
26	19
27	53
28	89
29	44
30	9
32	1
34	2
37	9
38	19
39	115
40	81
41	202
42	901
43	72
44	34
45	1
46	1
50	1
51	6
52	12
53	6
54	25
55	17
56	233
57	368
58	14
59	2
66	1
67	9
68	9
69	11
70	508
71	12
72	2
79	35
80	37
81	34
82	10
83	18
84	362
85	22
86	1
87	1
93	5
94	1
95	6
96	2
97	2
98	29
99	5
100	201
101	9
105	1
106	1
107	2
108	1
109	1
110	1
111	61
112	37
113	999
114	53
115	5
119	2
120	175
121	7
122	166
123	6
126	61
127	25
128	502
129	38
130	3
134	1
135	35
136	3
137	36
138	1
148	92
149	5
150	90
151	4
158	312
160	619
162	302
191	286
192	14
193	284
194	13
195	1
205	9
206	144
207	21
208	137
209	9
210	1
