Mass Spectrum: 1,3-Dioxane-4,6-dione, 2-methyl-2-phenyl-
Formula: C11H10O4
CAS: 58413-46-0
Molecular weight: 206
m/z	intensity
12	1
13	4
14	31
15	32
16	3
17	7
18	13
25	0
26	3
27	16
28	5
29	10
30	0
31	1
37	3
38	8
39	32
40	3
41	18
42	125
43	202
44	9
45	3
49	2
50	65
51	177
52	18
53	3
54	0
55	2
56	0
57	3
58	0
59	1
60	0
61	4
62	7
63	17
64	3
65	20
66	2
67	0
68	0
69	13
70	2
71	2
73	2
74	18
75	13
76	26
77	360
78	52
79	6
80	0
81	0
82	0
83	1
84	0
85	0
86	1
87	1
88	0
89	6
90	2
91	23
92	8
93	1
94	0
95	0
97	0
98	1
99	0
100	0
101	1
102	2
103	5
105	999
106	80
107	5
108	0
111	0
112	1
113	0
115	0
118	2
119	1
120	32
121	11
122	1
123	10
124	1
125	0
128	0
129	3
133	2
134	6
135	0
145	0
147	0
149	0
152	0
162	5
163	0
171	1
172	0
185	0
191	114
192	13
193	1
194	0
199	0
206	52
207	7
208	1
