Mass Spectrum: N-(Morpholin-4-yl-carbothioyl)-3-nitro-benzamide
Formula: C12H13N3O4S
CAS: 58415-36-4
Molecular weight: 295
m/z	intensity
12	5
13	2
14	10
15	66
16	5
17	14
18	48
19	3
25	2
26	34
27	116
28	368
29	250
30	282
31	28
32	27
33	3
34	2
35	1
36	3
37	15
38	28
39	38
40	18
41	63
42	140
43	83
44	74
45	42
46	18
47	4
48	2
49	9
50	263
51	56
52	13
53	18
54	37
55	73
56	224
57	141
58	168
59	43
60	95
61	16
62	17
63	42
64	42
65	22
66	4
67	3
68	14
69	52
70	26
71	7
72	23
73	14
74	74
75	130
76	454
77	58
78	6
79	2
80	2
81	2
82	3
83	4
84	12
85	47
86	999
87	99
88	21
89	5
90	12
91	9
92	76
93	10
94	2
95	2
96	4
97	3
98	1
99	2
100	3
101	21
102	10
103	20
104	418
105	43
106	5
107	5
108	6
109	7
110	2
111	4
112	2
113	31
114	7
115	19
116	4
117	4
118	15
119	6
120	23
121	7
122	20
123	3
124	2
125	2
127	1
128	20
129	20
130	15
131	5
132	2
133	2
134	45
135	10
136	4
137	3
138	1
139	1
141	1
143	1
144	1
145	26
146	5
147	3
148	2
150	558
151	49
152	7
153	1
154	3
155	4
159	1
160	1
161	1
162	2
163	7
164	2
165	1
166	2
167	7
168	1
171	1
173	2
175	1
176	1
177	3
178	2
179	1
180	1
183	1
186	0
189	2
190	1
191	1
192	3
193	17
194	3
195	1
196	1
204	0
205	2
206	1
207	0
208	2
209	7
210	14
211	2
212	0
216	0
218	1
219	1
220	3
221	7
222	2
224	0
225	7
226	1
232	0
233	0
234	2
235	5
236	4
237	1
238	0
239	1
248	1
249	1
250	6
251	2
252	5
253	1
254	0
262	2
263	0
264	1
265	2
266	2
267	0
278	1
279	1
280	0
295	74
296	11
297	5
298	0
