Mass Spectrum: Ethaneperoxoic acid, cyanocyclohexylphenylmethyl ester
Formula: C16H19NO3
CAS: 58422-78-9
Molecular weight: 273
m/z	intensity
105	999
131	150
132	40
133	90
168	90
198	50
199	70
200	10
207	10
