Mass Spectrum: Ethaneperoxoic acid, 1-cyano-4-methyl-1-phenylpentyl ester
Formula: C15H19NO3
CAS: 58422-74-5
Molecular weight: 261
m/z	intensity
105	999
120	520
121	60
130	80
131	80
133	60
147	50
148	70
176	60
186	90
187	110
204	50
205	20
220	10
