Mass Spectrum: Ethaneperoxoic acid, 1-cyano-1,4,8-trimethyl-7-nonenyl ester
Formula: C15H25NO3
CAS: 58422-65-4
Molecular weight: 267
m/z	intensity
125	999
134	454
135	545
136	909
137	909
149	545
150	545
151	636
164	636
179	454
182	272
190	181
192	272
