Mass Spectrum: Ethaneperoxoic acid, 1-cyano-1,4-diphenylpentyl ester
Formula: C20H21NO3
CAS: 58422-77-8
Molecular weight: 323
m/z	intensity
105	999
120	860
121	80
131	120
133	60
238	100
239	20
248	50
249	30
250	10
