Mass Spectrum: Ethaneperoxoic acid, 1-cyano-1-phenyloctyl ester
Formula: C17H23NO3
CAS: 58422-91-6
Molecular weight: 289
m/z	intensity
105	999
120	720
121	80
131	110
133	110
204	170
214	70
215	50
216	10
