Mass Spectrum: 3-Penten-1-ol, 2,2,4-trimethyl-
Formula: C8H16O
CAS: 5842-53-5
Molecular weight: 128
m/z	intensity
14	16
15	75
26	24
27	269
29	222
31	118
38	29
39	320
40	45
41	494
42	47
43	456
44	20
45	20
50	24
51	47
52	20
53	127
54	24
55	999
56	75
57	202
58	24
59	38
65	27
67	113
68	18
69	203
70	42
71	18
77	31
79	40
81	52
83	20
95	90
97	823
98	67
110	24
112	18
128	23
