Mass Spectrum: Ethaneperoxoic acid, cyanodiphenylmethyl ester
Formula: C16H13NO3
CAS: 58422-81-4
Molecular weight: 267
m/z	intensity
105	999
152	60
153	60
154	60
165	340
166	80
181	90
182	530
183	80
190	80
191	50
192	990
193	560
194	80
208	80
209	40
210	10
235	10
267	10
