Mass Spectrum: Ethaneperoxoic acid, 1-cyano-2-methyl-1-phenylpropyl ester
Formula: C13H15NO3
CAS: 58422-72-3
Molecular weight: 233
m/z	intensity
105	999
131	330
132	50
142	110
148	40
156	60
157	130
158	90
159	70
160	10
163	20
