Mass Spectrum: Ethaneperoxoic acid, 1-cyano-1-phenylpropyl ester
Formula: C12H13NO3
CAS: 58422-70-1
Molecular weight: 219
m/z	intensity
105	999
130	180
131	180
132	190
134	80
144	830
145	890
146	100
187	90
188	10
219	20
