Mass Spectrum: Ethaneperoxoic acid, 1-cyano-1-phenylbutyl ester
Formula: C13H15NO3
CAS: 58422-71-2
Molecular weight: 233
m/z	intensity
105	999
106	90
131	360
132	30
133	10
146	10
147	10
148	30
173	10
