Mass Spectrum: Ethaneperoxoic acid, 1-cyano-1-phenylpentyl ester
Formula: C14H17NO3
CAS: 58422-73-4
Molecular weight: 247
m/z	intensity
105	999
120	310
130	60
131	110
132	50
145	70
172	110
173	130
174	20
189	10
