Mass Spectrum: Ethaneperoxoic acid, 1-cyano-4,4-dimethyl-1-phenylpentyl ester
Formula: C16H21NO3
CAS: 58422-75-6
Molecular weight: 275
m/z	intensity
105	999
120	70
131	70
133	200
134	50
190	60
191	10
200	20
201	20
