Mass Spectrum: Benzoic acid, 4-[(2-hydroxybenzylideneamino)methyl]-
Formula: C15H13NO3
CAS: 58469-81-1
Molecular weight: 255
m/z	intensity
50	188
51	375
52	126
53	125
54	18
55	64
56	12
57	24
61	26
62	94
63	315
64	213
65	438
66	100
67	23
68	16
69	12
73	10
74	58
75	66
76	81
77	601
78	220
79	113
80	9
81	14
82	6
87	14
88	11
89	323
90	251
91	289
92	108
93	67
94	12
95	6
101	4
102	74
103	20
104	61
105	122
106	54
107	999
108	75
109	5
110	2
115	12
116	24
117	27
118	58
119	61
120	187
121	39
122	6
123	2
124	1
130	4
131	4
132	18
133	46
134	29
135	619
136	116
137	10
138	2
139	4
147	3
148	16
149	6
150	10
151	8
152	17
153	9
154	11
155	5
159	1
160	1
161	10
162	17
163	5
164	5
165	22
166	4
167	4
168	2
178	2
179	2
180	14
181	20
182	7
183	4
208	4
209	15
210	71
211	11
212	1
237	1
238	57
239	7
240	3
253	9
254	162
255	478
256	76
257	8
