Mass Spectrum: 2,5-Pyrrolidinedione, 3-[1-(ethylsulfinyl)ethylidene]-4-methyl-
Formula: C9H13NO3S
CAS: 58467-31-5
Molecular weight: 215
m/z	intensity
39	400
41	500
43	300
47	250
55	100
57	100
59	100
61	150
62	150
63	150
65	180
66	270
67	999
77	180
85	300
95	200
137	150
138	700
139	120
186	100
215	10
