Mass Spectrum: Carbamimidic acid, benzoyl-, methyl ester
Formula: C9H10N2O2
CAS: 58476-79-2
Molecular weight: 178
m/z	intensity
26	5
27	35
29	26
30	12
31	28
33	13
34	2
37	9
38	25
39	47
40	4
41	14
42	29
43	92
44	187
45	8
47	0
49	11
50	188
51	448
52	37
53	9
54	1
55	2
56	2
57	7
58	183
59	19
60	1
61	4
62	8
63	15
64	11
65	12
66	3
67	0
69	64
70	31
71	1
72	3
73	9
74	36
75	37
76	71
77	728
78	73
79	5
81	0
83	1
85	1
87	6
88	1
89	1
90	11
91	67
92	39
93	17
94	2
95	0
97	0
99	1
100	2
101	871
102	43
103	29
104	50
105	999
106	94
107	14
108	1
115	1
116	0
117	17
118	295
119	38
120	13
121	2
122	1
129	1
130	10
131	2
132	1
133	10
134	64
135	47
136	9
137	0
145	15
146	8
147	68
148	16
149	27
150	10
151	0
159	0
160	2
161	27
162	17
163	4
176	9
177	310
178	409
179	53
180	4
181	0
