Mass Spectrum: Carbamimidothioic acid, N-cyano-N'-methyl-, methyl ester
Formula: C4H7N3S
CAS: 5848-24-8
Molecular weight: 129
m/z	intensity
12	1
13	1
14	4
15	114
16	2
24	1
26	2
27	15
28	98
29	27
30	83
31	2
32	11
33	3
34	2
35	2
38	3
39	4
40	8
41	17
42	24
43	11
44	10
45	85
46	45
47	89
48	90
49	8
50	4
52	3
53	28
54	9
55	154
56	37
57	783
58	52
59	13
60	3
61	6
62	13
66	2
67	17
68	49
69	3
70	5
71	2
72	15
73	11
74	40
75	2
76	3
80	17
81	24
82	999
83	77
84	9
85	19
86	3
87	10
88	7
89	34
90	1
91	2
96	5
99	41
100	5
101	3
102	1
112	3
113	1
114	2
128	2
129	363
130	26
131	16
132	1
