Mass Spectrum: Cyanamide, N-(isoproppylamino)(methylthio)methylene-
Formula: C6H11N3S
CAS: 5848-27-1
Molecular weight: 157
m/z	intensity
33	5
34	3
35	1
36	1
37	3
38	13
39	122
40	55
41	356
42	198
43	999
44	75
45	95
46	55
47	128
48	108
49	27
50	6
51	3
52	5
53	13
54	7
55	10
56	13
57	37
58	246
59	33
60	19
61	7
62	3
63	10
64	1
66	4
68	867
69	176
70	20
71	6
72	20
73	19
74	111
75	103
76	9
77	5
78	0
79	1
80	4
81	4
82	9
83	73
84	35
85	42
86	5
87	3
88	2
89	5
90	37
91	2
92	2
94	15
95	2
96	2
97	2
99	210
100	27
101	17
102	3
103	0
104	1
105	0
107	1
108	10
110	368
111	25
112	2
113	1
114	3
115	9
116	12
117	57
118	4
119	3
120	0
123	0
124	2
125	1
126	6
127	1
128	1
129	1
130	1
133	0
140	2
141	5
142	148
143	11
144	8
145	1
152	0
153	0
155	1
157	145
158	14
159	7
160	1
161	0
