Mass Spectrum: Melibiose
Formula: C12H22O11
CAS: 585-99-9
Molecular weight: 342
m/z	intensity
14	6
15	27
16	7
17	30
18	133
19	36
25	7
26	33
27	91
28	174
29	473
30	139
31	455
32	81
33	11
35	37
36	221
37	25
38	94
39	70
40	26
41	98
42	229
43	673
44	539
45	210
46	34
47	48
49	15
50	20
51	24
52	24
53	68
54	44
55	210
56	160
57	323
58	110
59	52
60	731
61	369
62	32
63	36
64	17
65	13
66	7
67	11
68	33
69	118
70	68
71	308
72	152
73	999
74	159
75	38
76	15
77	33
78	10
79	15
80	17
81	47
82	14
83	38
84	32
85	132
86	66
87	78
88	29
89	61
90	44
91	108
92	7
93	5
94	4
95	22
96	29
97	116
98	56
99	30
100	21
101	95
102	104
103	87
104	9
105	1
106	11
107	8
108	9
109	174
110	258
111	27
112	14
113	34
114	18
115	34
116	19
117	10
118	4
119	48
120	10
121	10
123	7
124	19
125	13
126	126
127	39
128	17
129	11
130	2
131	60
132	11
133	33
134	7
135	1
136	10
137	3
138	3
139	3
140	2
142	6
143	4
144	36
145	24
146	5
147	6
149	16
152	5
155	12
161	13
163	26
164	31
165	10
173	9
182	23
191	2
212	31
261	4
263	2
