Mass Spectrum: 2-Fluoro-3,3-bis(trifluoromethyl)-1,2-azirine
Formula: C4F7N
CAS: 58506-70-0
Molecular weight: 195
m/z	intensity
28	93
31	355
32	3
50	73
69	999
70	11
76	345
77	11
100	375
101	4
126	38
131	88
132	8
145	445
146	11
150	38
157	68
158	9
176	263
177	9
195	148
196	7
