Mass Spectrum: 2-Ethylbutyric acid, 2,3,6-trichlorophenyl ester
Formula: C12H13Cl3O2
CAS: 58516-55-5
Molecular weight: 294
m/z	intensity
26	3
27	39
28	21
29	53
35	1
36	8
37	2
38	4
39	32
40	5
41	85
42	26
43	406
44	14
48	2
49	2
50	1
51	1
53	8
54	2
55	102
56	6
57	1
60	1
61	5
62	10
63	4
65	1
66	2
67	4
68	2
69	32
70	43
71	999
72	56
73	10
74	5
75	3
83	20
84	3
85	6
87	1
90	1
96	5
97	50
98	13
99	481
100	29
101	1
106	1
107	16
108	3
109	14
110	1
111	2
115	2
125	2
126	1
131	3
132	21
133	12
134	17
135	5
136	2
143	6
144	2
145	4
146	2
160	20
161	2
162	17
163	1
164	4
167	39
168	2
169	38
171	12
173	1
179	10
180	1
181	10
182	1
183	3
189	1
193	2
195	10
196	261
197	25
198	254
199	19
200	78
201	5
202	8
207	3
209	3
211	1
217	1
223	4
225	4
227	1
294	8
295	1
296	8
298	2
