Mass Spectrum: Pyridine, 2-(p-chlorostyryl)-4-((4-(diethylamino)-1-methylbutyl)amino)-
Formula: C22H30ClN3
CAS: 58521-04-3
Molecular weight: 371
m/z	intensity
41	48
42	46
43	19
44	25
49	3
51	13
52	4
53	4
54	5
55	8
56	35
57	11
58	114
59	3
65	2
67	6
68	4
69	14
70	11
71	12
72	30
73	50
74	2
75	2
77	4
78	4
82	4
84	20
86	999
87	52
89	3
93	3
98	10
99	30
100	1
101	7
110	3
111	5
112	18
114	1
119	1
121	1
126	10
127	3
128	9
139	1
140	11
142	8
151	7
152	19
153	4
166	1
167	5
178	19
179	5
186	2
194	4
201	1
213	6
214	4
215	4
221	4
228	1
229	10
230	5
231	10
240	2
241	3
243	11
245	3
255	7
257	22
258	6
259	7
269	6
271	19
272	5
273	6
283	5
285	8
287	1
293	1
297	23
298	6
299	20
300	11
301	6
302	4
342	36
343	8
344	10
356	6
370	5
371	36
372	9
373	12
374	3
