Mass Spectrum: Arsine, tributyl-
Formula: C12H27As
CAS: 5852-58-4
Molecular weight: 246
m/z	intensity
26	8
27	125
28	35
29	316
39	74
40	5
41	248
42	10
43	38
53	20
54	2
55	354
56	32
57	431
58	16
69	6
75	4
76	4
77	5
88	2
89	90
90	69
91	208
92	7
100	2
101	69
102	34
103	222
104	73
105	999
106	62
112	12
113	5
114	66
115	2
116	22
117	14
127	8
129	7
131	35
132	584
133	590
134	170
135	14
147	38
148	223
149	10
161	8
162	21
175	8
189	32
190	652
191	55
204	49
217	90
218	7
245	7
246	611
247	75
