Mass Spectrum: Arsine, trihexyl-
Formula: C18H39As
CAS: 5852-60-8
Molecular weight: 330
m/z	intensity
27	238
28	170
29	390
41	480
42	374
43	999
55	645
56	764
57	510
69	289
70	34
71	51
73	119
83	59
84	59
85	68
90	59
91	119
105	68
117	75
118	340
119	289
120	85
172	170
204	153
330	0
