Mass Spectrum: 3-Bromo-2-bromomethylpropionic acid, ethyl ester
Formula: C6H10Br2O2
CAS: 58539-11-0
Molecular weight: 272
m/z	intensity
25	1
26	39
27	267
28	38
29	952
30	40
31	27
36	2
37	10
38	34
39	384
40	70
41	999
42	67
43	74
44	19
45	102
46	5
47	6
49	1
50	2
51	4
52	1
53	9
54	5
55	72
56	14
57	59
58	5
59	43
60	23
61	6
63	1
64	1
65	2
66	2
67	16
68	20
69	53
70	10
71	16
72	3
73	27
74	6
75	1
76	2
77	3
78	2
79	6
80	10
81	11
82	10
83	20
84	20
85	202
86	18
87	7
88	2
89	2
90	1
91	7
92	3
93	74
94	4
95	74
96	7
97	11
98	7
99	6
100	2
101	5
102	18
103	4
104	3
105	9
106	3
107	17
108	5
109	11
110	6
111	10
112	5
113	65
114	7
115	9
116	6
117	8
118	10
119	325
120	287
121	330
122	269
123	29
124	3
125	8
126	3
127	3
128	2
129	5
130	2
131	2
132	1
133	17
134	2
135	18
136	6
137	23
138	9
139	22
140	4
141	5
142	2
143	6
144	2
145	4
146	4
147	71
148	7
149	84
150	6
151	118
152	5
153	118
154	6
155	2
156	1
157	3
158	1
159	2
160	2
161	4
162	4
163	3
164	88
165	143
166	95
167	146
168	9
169	3
171	3
172	2
173	6
175	4
177	3
178	6
179	463
180	29
181	460
182	30
183	3
184	2
185	5
187	2
189	2
190	5
191	4
192	36
193	600
194	87
195	599
196	51
197	6
198	4
199	136
200	13
201	263
202	14
203	125
204	5
205	2
207	2
209	2
210	3
211	2
213	2
218	3
219	2
220	3
221	3
223	4
224	3
225	2
226	6
227	101
228	17
229	202
230	10
231	103
232	5
244	170
245	12
246	330
247	20
248	168
249	11
258	4
259	4
260	3
272	103
273	10
274	200
275	16
276	101
277	8
