Mass Spectrum: Oleuropein hexaacetate
Formula: C37H44O19
CAS: 58546-60-4
Molecular weight: 792
m/z	intensity
41	150
42	180
43	999
44	150
45	50
55	140
56	50
57	130
58	30
59	90
60	120
69	120
70	50
71	70
73	100
77	90
78	40
79	80
81	220
83	70
85	120
91	120
97	200
98	160
99	80
103	200
109	950
115	270
119	70
120	250
121	300
122	50
123	120
127	400
136	280
137	210
139	200
145	220
147	100
149	160
157	120
161	70
162	90
163	110
165	360
167	250
169	800
170	300
171	50
178	200
179	180
180	150
187	80
209	100
211	200
221	30
229	100
271	320
272	50
273	20
289	130
331	990
332	200
333	30
360	10
371	35
384	10
385	4
402	20
403	13
404	5
413	13
414	4
444	30
445	20
446	7
460	7
461	14
462	4
513	4
526	1
555	2
672	0
690	0
708	0
732	0
733	0
750	0
751	0
792	2
793	1
794	0
