Mass Spectrum: 1-Propyne, 1-(ethenylthio)-
Formula: C5H6S
CAS: 58547-36-7
Molecular weight: 98
m/z	intensity
25	24
26	156
27	401
28	22
30	0
32	22
33	7
34	0
35	3
36	12
37	65
38	71
39	315
40	1
41	11
42	0
44	23
45	810
46	49
47	52
48	4
49	12
50	20
51	35
52	26
53	188
54	33
55	1
56	14
57	64
58	516
59	142
60	27
61	12
62	6
63	12
64	5
65	51
66	3
68	61
69	442
70	114
71	698
72	81
73	36
74	4
80	1
81	7
82	8
83	52
84	3
85	2
92	2
93	5
94	0
95	4
96	1
97	989
98	999
99	107
100	46
101	2
