Mass Spectrum: Butanoic acid, 3-oxo-, 2,2,2-trichloroethyl ester
Formula: C6H7Cl3O3
CAS: 58547-15-2
Molecular weight: 232
m/z	intensity
25	24
26	82
27	81
28	42
29	108
30	12
31	999
35	41
36	19
37	20
38	19
39	34
40	8
41	71
42	190
43	984
44	183
45	8
47	67
48	52
49	185
50	18
51	54
53	12
54	21
58	37
60	35
61	60
62	10
63	22
69	265
70	9
73	10
76	16
77	130
78	9
79	41
82	71
83	29
84	303
85	390
86	18
87	17
95	54
96	26
97	36
98	16
102	17
112	12
113	71
114	8
115	46
117	42
119	37
120	12
125	7
131	38
133	36
135	11
153	14
155	5
197	7
199	4
232	12
234	12
