Mass Spectrum: Gomisin B
Formula: C28H34O9
CAS: 58546-55-7
Molecular weight: 514
m/z	intensity
55	980
83	999
84	100
115	70
128	50
165	50
199	40
269	550
285	180
300	540
301	190
312	190
313	160
316	130
331	140
342	160
343	340
344	90
414	160
514	560
515	180
