Mass Spectrum: Benzamide, N,N-bis(2-hydroxyethyl)-
Formula: C11H15NO3
CAS: 58566-44-2
Molecular weight: 209
m/z	intensity
50	14
51	72
56	23
74	29
76	10
77	316
78	20
87	2
91	2
104	2
105	999
106	74
134	20
135	2
136	2
148	4
149	53
166	143
167	9
178	158
179	17
191	15
