Mass Spectrum: 12-Hydroxyoctadecanethioic acid, S-t-butyl ester
Formula: C22H44O2S
CAS: 58587-08-9
Molecular weight: 372
m/z	intensity
26	4
27	65
28	20
29	227
30	4
31	13
33	2
34	4
35	0
37	1
38	4
39	81
40	15
41	475
42	73
43	348
44	25
45	17
46	1
47	11
49	15
50	5
51	8
52	3
53	26
54	40
55	506
56	105
57	999
58	71
59	25
60	5
61	7
62	0
63	3
64	2
65	11
66	5
67	120
68	46
69	272
70	56
71	183
72	14
73	15
74	6
75	24
76	43
77	19
78	5
79	29
80	12
81	147
82	45
83	210
84	63
85	145
86	13
87	12
88	2
89	18
90	44
91	35
92	6
93	31
94	10
95	179
96	43
97	278
98	99
99	51
100	6
101	26
102	2
103	5
104	5
105	21
106	3
107	27
108	11
109	85
110	24
111	115
112	40
113	77
114	9
115	60
116	8
117	8
118	2
119	16
120	2
121	43
122	16
123	41
124	18
125	87
126	15
127	20
128	10
129	33
130	6
131	10
132	16
133	17
134	6
135	54
136	8
137	34
138	11
139	61
140	9
141	24
142	6
143	29
144	4
145	26
146	4
147	8
148	4
149	59
150	9
151	34
152	15
153	58
154	9
155	11
156	1
157	24
158	4
159	5
160	2
161	36
162	7
163	31
164	5
165	15
166	8
167	42
168	14
169	199
170	26
171	24
172	3
173	2
174	0
175	4
176	2
177	31
178	17
179	38
180	10
181	33
182	5
183	4
184	1
185	20
186	3
187	10
188	1
189	8
190	1
191	15
192	3
193	7
194	5
195	27
196	6
197	380
198	59
199	24
200	3
201	86
202	13
203	23
204	3
205	152
206	24
207	8
208	4
209	18
210	5
211	6
212	1
213	18
214	3
215	0
216	0
217	0
218	0
219	2
220	37
221	12
222	6
223	14
224	2
225	2
226	0
227	11
228	2
229	9
230	1
231	6
232	0
233	0
234	0
235	6
236	3
237	2
238	1
239	6
240	1
241	5
242	0
243	2
244	0
245	4
246	4
247	55
248	12
249	3
250	0
251	0
252	0
253	7
254	1
255	0
259	0
261	0
262	1
263	7
264	78
265	162
266	32
267	50
268	9
269	0
270	0
271	0
279	1
280	2
281	70
282	19
283	138
284	29
285	3
287	7
288	1
289	0
295	0
296	0
297	10
298	4
299	7
300	1
301	3
302	0
315	1
316	0
355	1
