Mass Spectrum: N'-(Indan-1-ylidene)-2-nitrobenzhydrazide
Formula: C16H13N3O3
CAS: 58586-96-2
Molecular weight: 295
m/z	intensity
33	1
36	1
37	23
38	69
39	98
40	9
41	24
42	18
43	20
44	16
46	4
50	330
51	237
52	51
53	12
54	7
55	10
56	5
57	9
59	2
60	2
62	30
63	146
65	135
66	9
67	3
68	3
69	5
70	2
71	2
73	8
74	53
76	382
77	136
78	65
79	21
80	2
81	2
83	4
84	2
85	2
86	8
87	10
89	81
90	47
91	138
92	34
93	9
95	1
97	1
98	2
99	2
100	2
101	39
102	42
103	159
104	65
105	9
107	4
110	1
112	1
115	893
116	999
117	76
118	21
119	18
120	22
121	10
122	2
128	219
129	200
130	57
131	24
132	35
133	40
134	10
135	15
136	6
142	3
143	3
144	13
145	137
146	80
147	2
150	68
151	14
152	52
153	2
160	3
161	1
162	2
163	1
165	3
166	1
176	1
177	1
178	3
179	1
189	3
190	1
191	2
192	1
202	1
203	2
204	7
205	3
206	2
218	1
220	1
232	3
234	1
249	2
265	1
278	4
295	125
296	21
297	2
