Mass Spectrum: 13-Octadecenal, (Z)-
Formula: C18H34O
CAS: 58594-45-9
Molecular weight: 266
m/z	intensity
15	1
26	2
27	59
28	13
29	124
30	3
31	4
37	1
38	2
39	90
40	17
41	547
42	93
43	272
44	120
45	11
46	1
50	2
51	6
52	5
53	74
54	195
55	999
56	234
57	238
58	27
59	11
63	1
65	23
66	24
67	355
68	178
69	464
70	207
71	98
72	22
73	5
77	19
78	8
79	94
80	75
81	345
82	278
83	326
84	160
85	68
86	24
87	6
91	11
92	4
93	73
94	66
95	294
96	222
97	240
98	260
99	38
100	14
101	4
105	2
106	1
107	50
108	49
109	136
110	90
111	141
112	86
113	21
114	9
115	3
119	1
120	3
121	115
122	43
123	56
124	45
125	50
126	20
127	11
128	6
129	2
133	1
134	1
135	67
136	27
137	23
138	28
139	18
140	9
141	7
142	3
143	1
148	1
149	28
150	11
151	9
152	19
153	12
154	7
155	4
156	2
163	12
164	5
165	6
166	13
167	8
168	5
169	2
170	1
177	6
178	2
179	3
180	5
181	6
182	5
183	1
184	1
191	3
192	2
193	2
194	3
195	5
196	4
197	1
205	3
206	1
207	1
209	5
210	4
211	1
219	2
220	1
222	5
223	6
224	3
225	1
237	4
238	1
248	24
249	5
251	1
266	10
267	2
