Mass Spectrum: Tricyclo[4.4.0.0(3,8)]deca-4,9-diene
Formula: C10H12
CAS: 58594-24-4
Molecular weight: 132
m/z	intensity
26	14
27	130
28	2
29	11
31	2
36	3
37	7
38	27
39	313
40	30
41	83
42	8
43	14
44	3
49	4
50	66
51	171
52	79
53	87
54	639
55	44
56	9
57	16
58	7
59	2
61	7
62	22
63	76
64	54
65	160
66	80
67	72
68	5
69	9
70	7
71	7
73	3
74	18
75	21
76	24
77	251
78	999
79	177
80	14
81	5
82	5
83	9
84	2
85	6
86	4
87	7
88	4
89	35
90	10
91	811
92	73
93	8
94	2
95	4
96	3
97	7
98	5
99	4
100	2
101	8
102	32
103	85
104	236
105	78
106	10
107	3
109	6
110	2
111	4
112	2
113	4
114	5
115	319
116	144
117	854
118	91
119	7
120	2
121	4
125	3
126	7
127	35
128	72
129	80
130	18
131	200
132	428
133	48
134	4
