Mass Spectrum: 2,5-Methano-1H-inden-7-ol, 8-chlorooctahydro-, (2.alpha.,3a.beta.,5.alpha.,7.beta.,7a.beta.,8s*)-
Formula: C10H15ClO
CAS: 58594-28-8
Molecular weight: 186
m/z	intensity
25	17
27	197
28	1
29	123
30	9
31	55
38	22
39	330
41	380
42	43
43	90
44	45
45	15
49	24
50	36
51	131
52	58
53	184
54	136
55	182
56	30
57	144
58	15
59	8
60	7
61	9
62	19
63	42
64	21
65	167
66	151
67	314
68	55
69	50
70	92
71	31
72	9
73	14
74	12
75	57
76	19
77	372
78	276
79	856
80	234
81	149
82	24
83	57
84	16
85	10
87	10
88	23
89	29
90	26
91	999
92	476
93	320
94	49
95	85
96	28
97	28
98	8
99	9
100	18
101	30
102	17
103	48
104	113
105	166
106	78
107	78
108	21
109	41
110	9
111	11
112	24
113	42
114	57
115	41
116	34
117	171
118	23
119	564
120	70
121	52
122	17
123	16
125	26
126	126
127	69
128	53
129	33
130	13
131	50
132	193
133	355
134	43
135	18
136	11
137	13
139	17
140	12
141	15
142	18
143	9
150	16
151	12
153	13
155	10
157	11
167	14
168	888
169	116
170	310
171	39
172	7
185	17
186	9
187	10
