Mass Spectrum: Metaproterenol
Formula: C11H17NO3
CAS: 586-06-1
Molecular weight: 211
m/z	intensity
41	81
42	38
43	120
44	35
45	5
50	6
51	17
52	8
53	27
54	11
55	32
56	36
57	21
58	13
60	6
63	8
64	3
65	59
66	8
67	9
68	5
69	32
70	12
71	11
72	999
73	49
77	12
78	3
79	7
80	8
81	16
82	10
83	5
84	2
85	2
91	4
93	27
94	6
95	5
96	3
97	3
98	4
105	3
107	10
108	7
109	8
110	9
111	38
112	3
115	2
121	3
122	3
123	15
124	6
125	12
132	3
133	3
135	7
136	5
137	18
138	7
139	6
140	16
149	5
150	7
151	5
152	2
161	5
162	2
178	20
179	2
192	3
211	14
