Mass Spectrum: Cyclohexene, 4-methyl-1-(1-methylethenyl)-
Formula: C10H16
CAS: 586-67-4
Molecular weight: 136
m/z	intensity
27	173
28	17
29	105
30	6
32	1
37	3
38	14
39	261
40	49
41	236
42	16
43	61
44	2
45	1
46	0
47	0
49	1
50	25
51	85
52	45
53	134
54	20
55	134
56	7
57	5
58	9
59	3
60	1
61	1
62	9
63	30
64	11
65	81
66	43
67	109
68	136
69	19
70	1
71	1
72	1
73	0
74	4
75	8
76	4
77	214
78	55
79	999
80	99
81	86
82	20
83	2
84	2
85	1
86	1
87	2
88	1
89	8
90	4
91	199
92	57
93	488
94	161
95	59
96	4
97	1
98	0
101	1
102	3
103	14
104	6
105	70
106	19
107	445
108	115
109	11
110	0
111	0
113	0
114	0
115	10
116	2
117	9
118	3
119	31
120	9
121	332
122	35
123	7
124	0
127	0
128	0
129	0
131	0
132	0
133	1
134	6
135	12
136	386
137	46
138	4
139	0
