Mass Spectrum: Tetracyclo[10.3.3.0.0(14,17)]octadecan-14-ol
Formula: C18H30O
CAS: 58602-58-7
Molecular weight: 262
m/z	intensity
41	704
42	94
43	413
44	2
45	24
47	6
48	1
49	31
50	2
51	36
52	20
53	179
54	60
55	658
56	52
57	57
58	4
59	1
60	0
63	6
64	1
65	66
66	33
67	295
68	79
69	204
70	24
71	25
72	1
75	0
77	160
78	43
79	274
80	86
81	286
82	156
83	111
84	16
85	6
86	10
88	2
89	2
91	198
92	33
93	103
94	71
95	380
96	999
97	101
98	9
99	1
102	0
103	19
104	11
105	69
106	23
107	168
108	246
109	946
110	125
111	15
112	1
115	16
116	7
117	36
118	12
119	31
120	12
121	233
122	94
123	125
124	27
125	6
126	0
127	1
128	3
129	5
130	1
131	20
132	5
133	30
134	18
135	128
136	42
137	36
138	32
139	4
141	0
143	1
145	12
146	1
147	12
148	6
149	78
150	27
151	54
152	18
153	3
157	0
159	7
160	1
161	8
162	3
163	58
164	8
165	19
166	15
167	1
173	4
175	4
176	0
177	30
178	18
179	13
180	7
187	4
188	3
189	4
191	17
192	7
193	12
194	3
201	6
202	1
203	4
204	13
205	23
206	7
207	80
208	10
215	5
217	2
218	0
219	42
220	146
221	53
222	8
229	2
231	1
233	152
234	27
235	1
243	1
244	7
245	16
246	2
247	8
248	2
260	0
261	16
262	195
263	30
264	3
