Mass Spectrum: Propanenitrile, 3-phenyl-2-(methylamino)
Formula: C10H12N2
CAS: 58626-96-3
Molecular weight: 160
m/z	intensity
26	13
27	94
28	51
29	6
30	13
37	4
38	12
39	78
40	13
41	37
42	401
43	21
44	3
50	34
51	79
52	23
53	13
54	8
55	7
56	9
57	6
61	10
62	20
63	49
64	20
65	142
66	5
67	5
69	999
70	61
72	3
74	10
75	20
76	20
77	59
78	20
79	10
80	4
81	5
82	5
84	4
85	4
86	4
87	4
89	36
90	22
91	458
92	283
93	29
95	4
96	3
101	6
102	14
103	28
104	17
105	13
106	3
115	4
116	10
117	21
118	12
119	8
120	3
128	7
129	8
130	28
131	10
132	42
133	83
134	24
157	4
158	4
159	5
160	105
161	15
