Mass Spectrum: Propane, 2,2'-[1,2-ethanediylbis(thio)]bis[2-methyl-
Formula: C10H22S2
CAS: 5862-62-4
Molecular weight: 206
m/z	intensity
15	2
18	3
25	1
26	7
27	36
28	18
29	111
30	2
32	3
33	3
34	8
35	3
36	1
37	2
38	3
39	48
40	9
41	202
42	8
43	2
44	1
45	17
46	4
47	7
48	1
49	6
50	3
51	3
52	1
53	6
54	2
55	23
56	52
57	999
58	45
59	35
60	33
61	52
62	2
63	2
64	4
65	1
69	2
71	1
73	2
74	4
75	15
76	4
80	1
82	1
87	1
88	2
89	10
90	2
91	3
92	4
93	27
94	185
95	9
96	15
101	3
103	27
104	2
105	1
115	9
116	11
117	15
118	2
119	1
121	1
122	1
135	9
136	1
149	59
150	57
151	9
152	5
206	149
207	20
208	14
209	2
