Mass Spectrum: Benzoic acid, 5-nitro-3-(2-pyridylmethylaminocarbonyl)-, methyl ester
Formula: C15H13N3O5
CAS: 58624-38-7
Molecular weight: 315
m/z	intensity
33	42
38	4
39	33
40	45
41	7
42	1
44	4
50	14
51	56
52	42
53	27
54	1
55	1
59	13
62	3
63	23
65	87
66	12
67	1
69	2
75	201
76	21
78	49
79	89
80	78
84	1
90	5
92	213
93	14
102	23
103	42
104	15
105	22
107	999
108	59
109	3
119	6
121	1
133	11
134	36
135	97
136	2
149	22
150	2
153	3
162	35
163	3
166	1
169	2
180	3
192	2
208	36
209	4
210	1
220	3
284	14
297	3
298	5
312	12
313	1
314	3
315	102
316	7
