Mass Spectrum: Acetamide, N-3-pyridinyl-
Formula: C7H8N2O
CAS: 5867-45-8
Molecular weight: 136
m/z	intensity
14	1
15	9
26	2
27	2
28	11
30	1
37	6
38	20
39	61
40	18
41	26
42	9
43	223
44	5
49	1
50	6
51	15
52	7
53	2
54	4
60	1
63	2
64	8
65	10
66	29
67	153
68	12
76	1
77	1
78	14
79	2
80	1
92	4
93	55
94	999
95	67
96	2
107	2
118	1
120	1
121	2
135	4
136	415
137	50
138	3
