Mass Spectrum: 1-Azabicyclo[2.2.2]octan-2-ol, 4-phenyl-
Formula: C13H17NO
CAS: 58690-17-8
Molecular weight: 203
m/z	intensity
39	101
41	293
42	645
43	430
44	128
45	42
51	80
53	45
55	120
56	193
57	230
58	425
59	30
60	30
63	25
65	70
67	48
68	35
69	120
70	35
71	115
72	155
77	130
78	50
81	28
82	35
83	40
84	92
85	38
91	293
92	30
103	75
111	63
112	999
113	65
115	150
116	55
117	100
118	65
129	373
130	88
131	100
132	42
143	55
144	195
145	53
158	40
174	42
175	111
178	12
202	73
203	810
204	98
