Mass Spectrum: Benzenepropanamide, .alpha.-(benzoylamino)-4-hydroxy-, (S)-
Formula: C16H16N2O3
CAS: 58690-81-6
Molecular weight: 284
m/z	intensity
17	2
18	4
26	1
27	12
28	12
29	2
38	2
39	17
40	2
41	2
42	2
43	2
44	17
45	3
50	18
51	79
52	13
53	11
54	1
55	7
57	3
62	2
63	6
64	2
65	10
66	2
67	1
73	16
74	4
75	6
76	16
77	452
78	43
79	18
80	2
81	2
89	4
90	4
91	13
92	2
93	1
94	4
95	1
101	1
102	1
103	5
104	9
105	999
106	83
107	288
108	33
109	3
116	2
117	2
118	17
119	11
120	13
121	3
122	248
123	19
124	1
132	2
133	11
134	8
135	7
136	4
144	2
145	1
146	18
147	72
148	8
149	1
160	4
161	155
162	146
163	726
164	77
165	8
174	1
177	2
178	40
179	5
180	1
220	1
221	1
238	1
239	15
240	29
241	5
267	3
268	1
284	26
285	5
286	1
