Mass Spectrum: 2-Chloroacetanilide
Formula: C8H8ClNO
CAS: 587-65-5
Molecular weight: 169
m/z	intensity
26	1
27	4
28	9
36	2
37	4
38	12
39	49
40	7
41	7
42	6
43	3
48	1
49	33
50	12
51	44
52	10
53	2
54	2
56	1
60	1
61	2
62	5
63	22
64	24
65	116
66	75
67	6
74	3
75	3
76	7
77	183
78	17
79	11
88	3
89	1
90	2
91	16
92	112
93	999
94	119
95	5
104	4
105	2
106	14
107	1
119	13
120	401
121	31
122	2
132	3
133	4
134	16
135	3
149	1
168	2
169	653
170	63
171	212
172	19
173	1
