Mass Spectrum: 2-Cyclopenten-1-one,3-hydroxy-2-methyl-
Formula: C6H8O2
CAS: 5870-63-3
Molecular weight: 112
m/z	intensity
25	4
26	50
27	141
28	171
29	61
30	1
31	10
36	0
37	7
38	12
39	69
40	17
41	86
42	42
43	113
44	12
45	2
49	3
50	14
51	18
52	11
53	57
54	27
55	296
56	321
57	111
58	6
60	0
61	4
62	6
63	10
64	3
65	27
66	36
67	39
68	6
69	139
70	81
71	5
73	1
77	1
79	1
81	6
82	7
83	428
84	70
85	48
86	2
91	1
93	2
94	6
95	5
97	27
98	1
110	1
111	148
112	999
113	73
114	6
