Mass Spectrum: 3-(N-Acetyl-N-methylamino)propionic acid
Formula: C6H11NO3
CAS: 58706-66-4
Molecular weight: 145
m/z	intensity
13	1
14	8
15	80
16	1
17	9
18	51
25	5
26	32
27	95
28	93
29	29
30	160
31	48
32	11
37	1
38	2
39	4
40	8
41	23
42	253
43	698
44	999
45	85
46	4
51	2
52	5
53	6
54	17
55	105
56	73
57	76
58	284
59	9
60	20
61	1
68	2
69	1
70	19
71	8
72	142
73	275
74	21
75	1
77	1
78	1
81	1
82	2
83	3
84	101
85	10
86	172
87	8
88	67
89	2
98	9
99	53
100	61
101	10
102	552
103	50
104	4
105	1
127	19
128	15
129	1
130	2
145	343
146	30
147	1
