Mass Spectrum: 8-Oxabicyclo[3.2.1]oct-6-en-2-one, 1,4,4-trimethyl-
Formula: C10H14O2
CAS: 58705-36-5
Molecular weight: 166
m/z	intensity
26	20
27	250
28	71
29	103
30	3
31	5
36	3
37	8
38	26
39	290
40	36
41	211
42	27
43	286
44	32
45	5
49	3
50	25
51	52
52	34
53	147
54	126
55	75
56	65
57	8
61	2
62	4
63	13
64	3
65	20
66	9
67	23
68	3
69	11
70	3
71	3
74	3
75	6
77	24
78	9
79	27
80	14
81	163
82	999
83	89
84	5
85	1
91	17
92	3
93	6
94	3
95	30
96	4
97	2
98	2
105	6
107	22
108	9
109	54
110	8
111	7
113	2
115	2
121	2
122	4
123	60
124	9
138	2
139	9
141	4
151	3
166	18
167	3
