Mass Spectrum: Ethanone, 1-[10,11-dihydro-10-(4-methyl-1-piperazinyl)dibenzo[b,f]thiepin-2-yl]-
Formula: C21H24N2OS
CAS: 58721-99-6
Molecular weight: 352
m/z	intensity
33	31
34	2
36	8
37	2
38	4
40	57
42	296
43	505
44	143
45	114
46	26
47	1
48	1
50	3
51	11
53	52
54	100
55	94
56	346
57	97
58	113
59	4
63	16
64	5
65	8
66	1
70	999
71	110
72	297
73	12
75	7
76	6
77	18
78	7
79	8
81	8
82	17
83	30
84	41
85	169
86	21
87	4
88	5
89	17
90	8
91	15
92	4
93	2
94	3
95	6
97	149
99	491
100	42
101	5
102	5
103	6
104	11
105	5
107	6
108	3
109	3
110	1
111	12
112	48
113	14
115	12
116	6
117	6
118	4
119	6
120	2
121	12
123	7
125	1
126	3
127	4
128	2
130	22
131	5
132	4
133	6
134	11
135	6
136	4
137	1
138	3
139	10
140	1
144	13
145	4
146	2
147	5
148	7
149	5
150	6
151	12
152	15
153	2
157	2
158	4
159	2
160	2
161	3
162	8
163	15
164	12
165	48
166	9
167	3
168	1
169	1
170	1
171	6
172	5
173	4
175	6
176	30
177	26
178	56
179	15
180	1
182	1
183	3
184	8
185	5
186	5
187	14
189	10
190	6
191	8
192	4
193	2
195	9
196	13
197	9
198	2
199	6
200	4
201	2
202	3
203	5
204	7
205	18
206	6
208	58
209	55
210	79
211	48
212	10
213	2
217	2
218	4
219	3
220	9
221	26
222	9
223	20
224	9
225	5
226	1
229	5
230	1
232	5
233	2
234	5
235	6
236	8
237	19
238	9
239	38
240	10
241	4
247	7
248	5
249	3
250	3
251	6
252	70
253	203
254	44
255	13
256	3
257	3
260	12
261	3
262	11
263	4
264	3
265	6
266	21
267	67
268	41
269	10
270	2
276	3
277	2
278	6
280	153
281	101
282	66
283	15
284	4
291	2
292	7
293	42
294	52
295	33
296	19
297	4
298	5
308	26
309	69
310	17
311	5
312	1
319	8
320	2
322	2
323	12
324	10
325	2
337	6
338	1
349	0
350	7
351	46
352	332
353	79
354	23
355	3
