Mass Spectrum: Phenylalanine, 4-acetylamino-
Formula: C11H14N2O3
CAS: 5873-05-2
Molecular weight: 222
m/z	intensity
41	131
42	49
43	274
44	162
45	453
46	24
47	11
49	2
50	121
51	208
52	34
53	26
54	16
55	35
56	93
57	37
58	4
59	6
60	3
61	1
62	5
63	21
64	11
65	32
66	16
67	20
68	1
69	287
70	14
71	7
72	0
73	2
74	42
75	6
76	8
77	93
78	61
79	43
80	20
81	8
82	3
83	4
84	1
85	3
86	9
87	2
88	1
89	21
90	15
91	34
92	12
93	27
94	9
95	30
96	2
97	19
98	1
99	1
101	0
102	2
103	3
104	24
105	20
106	999
107	234
108	21
109	3
111	1
114	8
115	5
116	8
117	37
118	69
119	29
120	11
121	16
122	7
123	3
124	4
127	0
128	1
130	3
131	7
132	16
133	22
134	26
135	15
136	5
137	0
139	0
141	1
142	3
143	2
144	0
145	32
146	7
147	7
148	320
149	429
150	40
151	4
153	0
156	0
157	5
159	4
160	15
161	6
162	28
163	8
164	1
165	3
167	6
175	2
176	6
177	55
178	25
179	3
180	28
181	4
184	0
191	4
192	1
197	0
202	2
203	0
205	1
207	0
219	2
222	32
223	6
