Mass Spectrum: 4-Cyclononen-1-one
Formula: C9H14O
CAS: 58746-30-8
Molecular weight: 138
m/z	intensity
26	71
27	533
28	282
29	140
30	3
31	10
33	1
37	7
38	40
39	773
40	141
41	588
42	154
43	99
44	7
45	5
49	2
50	55
51	122
52	61
53	269
54	811
55	818
56	70
57	23
58	9
59	1
60	0
61	3
62	13
63	32
64	5
65	111
66	112
67	999
68	431
69	119
70	30
71	9
72	1
73	3
74	6
75	2
77	96
78	52
79	400
80	280
81	325
82	517
83	140
84	114
85	6
86	2
87	0
89	3
91	157
92	172
93	31
94	41
95	328
96	133
97	143
98	13
102	2
103	4
104	1
105	38
106	3
107	5
109	141
110	121
111	9
115	7
116	1
117	12
118	7
119	13
120	651
121	59
122	4
123	106
124	9
133	0
136	1
137	22
138	40
139	4
