Mass Spectrum: N-Benzoyl-L-proline
Formula: C12H13NO3
CAS: 5874-58-8
Molecular weight: 219
m/z	intensity
41	108
42	33
43	58
44	35
45	22
49	1
50	56
51	162
52	15
53	10
54	2
55	34
56	12
57	8
58	2
60	5
61	2
62	1
63	4
64	1
65	4
67	3
68	34
69	19
70	93
71	7
72	2
73	6
74	11
75	12
77	491
78	36
79	5
81	5
82	0
83	19
84	3
85	7
86	0
87	7
89	2
91	11
92	3
95	2
96	4
97	3
98	4
99	1
103	4
105	999
106	68
107	4
109	0
110	2
111	4
112	5
113	12
114	7
115	2
116	0
117	6
118	5
119	5
120	7
124	4
125	0
126	14
128	7
129	2
130	2
131	0
132	1
133	3
134	1
138	1
139	2
140	2
144	1
146	77
147	21
148	1
149	4
152	6
157	2
158	1
166	1
170	2
172	0
174	274
175	359
176	39
177	0
180	4
181	12
182	0
201	2
203	0
207	2
219	20
220	3
