Mass Spectrum: 3-Endo-methylbenzonorbornen-2-one
Formula: C12H12O
CAS: 58742-11-3
Molecular weight: 172
m/z	intensity
40	6
41	30
43	30
45	12
47	176
49	108
50	41
51	79
52	16
53	11
55	33
56	5
57	26
58	11
59	16
62	43
63	127
64	20
65	60
66	5
69	15
70	16
71	15
72	5
74	33
75	46
76	16
77	66
78	16
82	99
84	362
86	185
87	19
88	43
89	125
90	18
91	26
94	16
101	35
102	34
103	8
113	29
114	29
115	583
116	999
117	499
118	6
123	10
126	8
127	22
128	68
129	124
130	14
139	9
141	42
142	11
143	64
144	42
145	9
172	231
173	18
