Mass Spectrum: 3-Methyl-5-[3,4-dichlorophenyl]-2H-1,3[3H]-oxazine-2,6-dione
Formula: C11H7Cl2NO3
CAS: 58755-83-2
Molecular weight: 271
m/z	intensity
42	999
43	7
44	18
45	9
47	7
48	2
49	31
50	75
51	38
52	11
53	11
54	3
55	3
56	13
57	5
58	1
59	2
60	8
61	44
62	64
63	56
64	20
65	6
66	4
67	7
68	11
69	4
70	0
71	2
72	18
73	83
74	72
75	67
76	13
77	10
78	6
79	4
80	2
81	19
83	13
84	22
85	46
86	64
87	97
88	26
89	4
90	3
91	0
92	1
93	0
94	0
96	50
97	47
98	44
99	80
100	25
101	16
102	13
103	1
104	0
106	1
107	21
108	7
109	27
110	7
111	15
112	11
113	6
114	27
115	3
116	0
117	0
118	0
119	0
120	3
121	11
122	15
123	105
124	15
125	32
126	7
127	5
128	8
129	8
131	4
132	0
133	7
134	7
135	29
136	17
137	13
138	4
139	1
144	0
145	2
146	1
147	1
148	30
149	9
150	11
151	3
152	0
153	0
156	3
157	71
158	74
159	49
160	48
161	9
162	10
163	6
164	23
165	4
166	6
167	0
169	0
170	119
171	12
172	77
173	9
174	13
175	2
176	0
177	1
178	0
179	0
182	0
183	1
184	29
186	205
187	18
188	120
189	9
190	20
191	2
192	10
193	1
194	3
195	0
196	0
197	0
198	20
199	15
200	13
201	9
202	3
203	1
211	0
212	0
213	0
214	1
215	0
216	0
226	99
227	120
228	59
229	80
230	18
231	13
232	1
271	48
272	6
273	32
274	4
275	5
276	0
