Mass Spectrum: 3-Methyl-4-phenyl-2H-1,3[3H]oxazine-2,6-dione
Formula: C11H9NO3
CAS: 58755-72-9
Molecular weight: 203
m/z	intensity
41	43
42	37
43	24
44	33
45	9
47	6
48	3
49	42
50	171
51	357
52	91
53	38
54	42
55	48
56	26
57	4
58	47
59	1
60	1
61	20
62	62
63	144
64	31
65	43
66	7
67	6
68	12
69	58
70	3
71	7
72	5
73	10
74	69
75	63
76	116
77	554
78	67
79	7
80	6
81	10
82	291
83	11
84	21
85	4
86	21
87	15
88	17
89	118
90	33
91	115
92	21
93	1
95	0
97	3
98	8
99	7
100	6
101	10
102	190
103	81
104	51
105	376
106	26
107	2
111	0
112	0
114	6
115	8
116	82
117	6
118	999
119	72
120	20
121	2
128	2
129	9
130	115
131	34
132	8
133	1
134	1
135	1
139	0
141	0
143	0
144	2
145	19
146	7
147	46
148	10
149	9
150	0
158	378
159	439
160	48
161	4
162	0
163	0
175	1
176	10
188	10
189	1
201	2
202	0
203	280
204	36
205	4
