Mass Spectrum: 4-Phenyl-2H-1,3[3H]oxazine-2,6-dione
Formula: C10H7NO3
CAS: 58755-71-8
Molecular weight: 189
m/z	intensity
41	67
42	51
43	33
44	28
45	19
47	2
48	1
49	27
50	193
51	341
52	88
53	7
54	1
55	2
56	1
57	7
58	11
60	2
61	30
62	76
63	149
64	33
65	13
66	2
67	2
68	262
69	11
70	3
71	1
73	14
74	64
75	48
76	100
77	396
78	74
79	3
80	1
81	1
83	1
84	8
85	5
86	16
87	17
88	16
89	162
90	74
91	7
97	1
98	6
99	3
100	1
101	6
102	47
103	55
104	999
105	110
106	4
114	3
115	3
116	59
117	203
118	17
119	1
129	15
130	2
131	1
132	1
133	1
144	24
145	607
146	55
147	3
160	2
161	2
172	4
177	0
187	1
189	452
190	58
191	6
