Mass Spectrum: Silane, dimethyl[2-(pentafluorophenyl)ethyl]-
Formula: C10H11F5Si
CAS: 58751-81-8
Molecular weight: 254
m/z	intensity
28	500
30	250
31	420
40	170
42	220
43	500
44	240
45	500
47	410
49	230
51	150
53	90
55	130
56	90
57	290
58	500
59	999
60	500
61	300
62	260
63	540
64	110
69	110
74	100
75	790
76	200
77	999
78	400
79	230
81	340
87	180
89	80
91	50
93	280
99	340
101	150
105	460
106	110
107	230
111	130
115	100
117	150
119	730
123	90
125	340
132	110
137	400
138	260
139	190
143	180
145	600
150	110
151	60
155	130
156	180
157	200
158	340
159	60
161	80
163	120
168	40
174	40
175	80
176	100
181	270
184	50
194	100
211	190
223	70
239	190
254	170
