Mass Spectrum: 6-(2-propynyloxy)-1-hexanol
Formula: C9H16O2
CAS: 58757-86-1
Molecular weight: 156
m/z	intensity
40	24
41	999
42	141
43	173
44	13
45	7
50	4
51	14
52	13
53	80
54	164
55	504
56	86
57	92
58	5
59	1
62	1
63	4
64	2
65	45
66	73
67	401
68	117
69	473
70	54
71	106
72	5
73	1
76	1
77	22
78	20
79	89
81	425
82	145
83	68
84	25
85	22
86	1
91	18
92	7
93	16
94	29
95	69
96	20
97	30
99	243
100	17
101	1
105	7
106	1
107	6
108	3
109	22
110	10
111	8
112	1
117	1
119	1
121	1
123	5
125	2
135	1
136	2
137	2
153	1
155	28
156	3
