Mass Spectrum: 3-Methyl-5-[p-fluorophenyl]-2H-1,3-[3H]-oxazine-2,6-dione
Formula: C11H8FNO3
CAS: 58755-86-5
Molecular weight: 221
m/z	intensity
42	999
43	5
44	20
45	19
46	2
47	7
48	3
49	40
50	86
51	60
52	16
53	14
54	4
55	4
56	32
57	196
58	16
59	9
60	15
61	36
62	75
63	90
64	19
65	7
66	3
67	3
68	20
69	24
70	44
71	3
72	1
73	10
74	101
75	87
76	21
77	11
78	3
79	4
80	21
81	107
82	25
83	27
84	16
85	14
86	35
87	44
88	24
89	20
90	9
92	11
93	19
94	58
95	31
96	11
98	20
99	27
100	19
101	42
102	9
103	2
104	0
105	27
106	32
107	396
108	413
109	40
110	4
111	4
112	2
113	3
114	6
115	2
116	3
117	3
118	7
119	1
120	364
121	47
122	10
123	28
124	3
125	1
126	2
127	0
128	5
129	1
130	5
131	0
132	27
133	27
134	169
136	439
137	37
138	3
139	0
143	0
144	0
145	1
146	4
147	0
148	140
149	79
150	8
151	2
152	0
154	0
158	10
159	6
160	0
161	1
162	3
163	2
164	2
165	1
166	0
167	0
174	0
176	326
177	425
178	57
179	6
180	0
183	0
187	0
190	0
191	0
192	0
193	1
194	0
201	0
203	3
204	1
205	0
206	0
207	0
208	0
209	0
216	0
219	0
221	208
222	26
223	1
