Mass Spectrum: 3-Methyl-5-[p-anisyl]-2H-1,3[3H]-oxazine-2,6-dione
Formula: C12H11NO4
CAS: 58755-75-2
Molecular weight: 233
m/z	intensity
42	999
43	28
44	12
45	22
47	5
49	31
50	107
51	153
52	10
53	38
54	3
55	15
56	21
57	9
59	9
61	17
62	78
63	153
64	16
65	94
66	12
67	3
68	1
69	3
73	6
74	35
75	59
76	148
77	131
78	29
79	20
80	8
82	1
84	15
85	5
86	18
87	21
88	33
89	175
90	33
91	227
92	37
93	2
94	11
95	9
98	3
99	3
101	12
102	28
103	51
104	17
105	56
106	6
108	3
114	11
115	8
116	9
117	94
118	48
119	132
120	358
121	27
128	3
129	1
130	33
132	403
133	105
134	26
135	6
144	3
145	17
146	252
148	447
149	34
150	3
158	10
160	64
161	84
162	9
172	2
173	2
174	52
175	5
186	1
188	174
189	873
190	92
191	8
230	3
233	520
234	21
235	4
