Mass Spectrum: 7-Methoxy-2H-1,3-benzodioxol-5-amine
Formula: C8H9NO3
CAS: 5876-57-3
Molecular weight: 167
m/z	intensity
36	4
37	74
38	169
39	472
40	187
41	213
42	79
43	33
44	91
45	6
46	5
49	33
50	150
51	215
52	490
53	424
54	182
55	45
56	6
57	18
58	57
59	10
61	16
62	24
63	24
64	35
65	170
66	109
67	87
68	308
69	40
70	9
71	7
75	12
76	57
77	65
78	94
79	273
80	999
81	268
82	36
84	89
90	2
91	6
92	18
93	46
94	159
95	262
96	111
97	10
106	6
107	17
108	60
109	12
110	128
111	7
121	2
122	221
123	26
124	346
125	22
126	2
134	1
135	5
136	91
137	77
138	135
139	16
140	5
152	20
153	2
166	75
167	795
168	69
169	3
