Mass Spectrum: Ethane-1,1-oxybis(N,N-dipropylacetamide)
Formula: C18H36N2O4
CAS: 58774-46-2
Molecular weight: 344
m/z	intensity
25	0
26	7
27	110
28	49
29	42
30	177
31	34
34	0
37	1
38	1
39	29
40	6
41	205
42	169
43	999
44	72
45	245
46	9
47	1
49	0
50	1
51	2
52	1
53	3
54	10
55	27
56	49
57	53
58	174
59	23
60	6
61	1
62	0
63	3
64	0
65	3
66	0
67	4
68	7
69	12
70	128
71	29
72	446
73	46
74	5
75	61
76	6
77	5
78	2
79	4
80	1
81	4
82	5
83	11
84	50
85	18
86	372
87	26
88	11
89	6
90	0
91	4
92	1
93	2
94	2
95	4
96	4
97	8
98	39
99	91
100	411
101	51
102	22
103	7
104	11
105	17
106	2
107	2
108	2
109	3
110	2
111	6
112	44
113	38
114	151
115	34
116	32
117	10
118	3
119	4
120	1
121	1
122	3
123	2
124	1
125	3
126	109
127	11
128	478
129	52
130	36
131	7
132	2
133	2
134	1
135	1
136	1
137	1
138	1
139	2
140	7
141	119
142	109
143	66
144	24
145	5
146	16
147	2
148	0
149	21
150	2
151	1
152	2
153	2
154	2
155	3
156	31
157	57
158	283
159	123
160	24
161	3
162	1
163	0
164	1
165	6
166	5
167	2
168	3
169	2
170	8
171	1
172	50
173	12
174	24
175	4
176	3
177	1
178	2
179	2
180	2
181	21
182	3
183	1
184	5
185	124
186	552
187	138
188	15
189	1
190	1
191	1
192	1
193	0
194	0
195	2
196	16
197	3
198	0
199	0
200	1
201	0
202	33
203	16
204	45
205	6
206	1
207	0
208	0
209	0
210	0
211	0
212	0
214	0
215	0
216	82
217	20
218	4
219	0
220	0
223	1
224	0
225	0
226	0
227	0
236	0
238	0
239	0
240	0
241	0
243	0
244	10
245	1
246	0
252	0
253	0
254	0
255	0
256	0
258	0
259	0
260	0
261	0
262	0
272	0
273	0
274	0
278	0
280	0
282	0
286	0
287	1
288	0
301	2
302	1
303	0
315	0
329	2
330	0
343	2
344	87
345	18
346	2
347	0
