Mass Spectrum: 2-Methoxy-N,N-dimethylbenzylamine
Formula: C10H15NO
CAS: 58774-83-7
Molecular weight: 165
m/z	intensity
39	58
42	209
44	199
46	143
51	70
57	61
58	999
65	96
77	56
78	57
91	542
92	55
120	45
121	346
122	68
150	68
164	141
165	261
166	26
