Mass Spectrum: Benzyl 6-O-trityl-2,3,4-tri-O-chloroacetyl-.beta.-d-glucoside
Formula: C38H35Cl3O9
CAS: 58780-45-3
Molecular weight: 740
m/z	intensity
42	59
43	46
44	2
45	18
47	3
49	44
50	1
51	60
52	6
53	3
55	16
56	1
57	28
58	2
59	2
60	20
61	11
63	13
64	0
65	63
66	1
67	0
68	0
69	23
71	19
73	30
74	1
75	5
77	228
78	1
79	65
81	26
82	0
83	5
85	12
86	3
87	5
89	19
91	999
92	120
93	3
95	6
97	46
98	3
99	12
100	0
101	10
103	3
105	257
107	50
108	14
109	10
110	4
111	5
113	3
114	1
115	24
116	6
117	1
119	8
120	2
121	2
122	1
123	0
125	3
126	0
127	18
128	3
129	2
131	1
132	0
133	11
134	2
135	0
136	1
137	11
139	10
141	3
143	10
144	3
145	3
146	2
149	9
150	2
151	5
152	10
153	7
154	23
155	11
156	0
157	1
159	0
161	5
163	19
165	254
166	31
167	14
168	2
171	1
173	19
174	1
175	11
176	2
177	2
178	2
179	2
181	12
182	12
183	56
184	6
185	2
186	2
187	6
188	2
189	5
191	4
193	0
195	3
200	0
201	5
202	8
203	11
204	2
205	4
207	1
209	4
213	2
214	9
215	17
216	3
217	0
221	2
225	2
226	6
227	6
228	24
229	4
231	0
237	3
239	23
240	1
241	37
242	4
243	855
244	180
245	16
246	0
254	0
255	1
257	1
258	8
259	25
260	19
261	3
273	17
274	4
281	0
283	0
285	0
297	11
299	8
301	2
309	0
315	1
319	0
333	22
334	6
349	0
391	16
392	1
393	18
394	1
395	6
467	1
469	1
539	7
540	2
541	5
542	0
543	0
555	1
557	0
740	0
