Mass Spectrum: Paniculatine
Formula: C17H27NO2
CAS: 58786-38-2
Molecular weight: 277
m/z	intensity
41	250
42	380
43	390
44	500
53	80
55	100
57	420
58	999
59	40
65	40
66	30
67	90
68	30
70	240
71	250
72	40
77	100
78	30
79	90
81	40
82	50
83	40
84	70
91	150
92	30
93	40
94	120
95	60
96	210
98	30
105	70
107	30
108	90
109	80
110	110
112	30
113	30
117	30
136	30
164	30
178	30
180	40
191	70
192	170
204	290
205	40
206	50
235	30
248	50
249	30
262	100
276	300
277	900
278	200
