Mass Spectrum: 1H-Purine-2,6-dione, 7-(2-chloroethyl)-3,7-dihydro-1,3-dimethyl-
Formula: C9H11ClN4O2
CAS: 5878-61-5
Molecular weight: 242
m/z	intensity
41	128
42	212
43	3
44	6
49	10
51	5
52	37
53	105
54	95
55	15
56	64
57	5
58	10
61	2
62	9
63	154
64	3
65	53
66	81
67	612
68	179
69	26
70	28
79	25
80	17
81	92
82	4
83	0
88	0
90	1
92	0
93	16
94	178
95	999
96	60
97	0
108	9
109	57
110	1
120	0
121	3
122	108
123	197
124	13
130	5
132	0
134	1
136	12
148	0
150	8
151	18
152	6
179	0
180	573
181	33
184	5
186	0
193	29
206	74
207	503
208	37
213	0
242	410
243	32
244	120
245	2
