Mass Spectrum: 4,6-Diamino-1-methyl-3-phenyl pyrazolo[3,4-d]pyrimidine
Formula: C12H12N6
CAS: 58791-67-6
Molecular weight: 240
m/z	intensity
42	81
43	999
44	41
45	8
46	3
47	4
49	22
50	98
51	253
52	81
53	86
54	24
55	35
57	30
59	5
61	12
62	27
63	56
64	24
65	26
66	35
67	59
68	87
69	45
70	17
72	6
74	35
75	50
76	80
77	272
78	35
79	24
80	15
82	38
83	11
84	8
85	8
86	11
87	17
88	26
89	26
90	12
91	15
92	20
93	6
94	8
95	3
96	2
98	4
99	47
100	60
101	41
102	26
103	28
104	49
105	8
106	8
107	2
108	1
109	9
110	24
111	1
112	25
114	20
115	20
116	19
117	8
118	9
119	7
120	43
122	1
123	2
124	2
127	149
128	107
129	24
130	5
131	8
132	3
133	2
134	3
135	6
136	5
138	1
139	3
140	8
141	22
142	29
143	24
144	8
145	3
146	1
152	11
153	46
154	22
155	29
156	8
157	4
158	1
159	0
161	0
163	11
164	1
165	0
166	1
167	8
168	25
169	35
170	42
171	6
172	1
178	2
180	21
181	9
182	11
183	3
184	11
185	4
186	0
189	1
191	1
192	0
194	9
195	28
197	97
198	49
199	21
200	2
205	0
207	1
208	0
209	1
210	9
211	5
212	7
213	1
214	0
220	2
222	40
223	8
224	23
225	6
226	0
237	11
239	564
240	941
241	178
242	14
243	0
