Mass Spectrum: Bicyclo[3.1.0]hexane-6-methanol, 2-hydroxy-1,4,4-trimethyl-
Formula: C10H18O2
CAS: 58795-41-8
Molecular weight: 170
m/z	intensity
26	10
27	232
28	29
29	270
30	8
31	151
38	10
39	325
40	55
41	613
42	56
43	999
44	63
45	53
50	18
51	77
52	31
53	254
54	48
55	591
56	97
57	190
58	35
59	47
60	5
61	5
62	6
63	20
64	7
65	98
66	43
67	332
68	187
69	253
70	102
71	187
72	59
73	13
74	5
75	6
76	4
77	164
78	36
79	207
80	38
81	828
82	226
83	272
84	60
85	58
86	9
87	19
88	5
89	5
90	5
91	168
92	25
93	178
94	52
95	281
96	156
97	115
98	68
99	55
100	11
101	16
102	4
103	15
104	6
105	74
106	20
107	157
108	80
109	247
110	271
111	171
112	33
113	7
114	13
115	6
117	5
119	52
120	8
121	147
122	71
123	104
124	31
125	39
126	43
127	20
128	7
129	3
134	18
135	10
136	4
137	136
138	15
139	137
140	14
141	4
149	5
150	3
151	4
152	341
153	40
154	4
155	15
170	18
171	2
172	0
