Mass Spectrum: 4,6-Diamino-1-[4-chloro-o-tolyl]pyrazolo[3,4-d]pyrimidine
Formula: C12H11ClN6
CAS: 58791-59-6
Molecular weight: 274
m/z	intensity
41	33
42	142
43	999
44	2
45	73
47	7
49	16
50	66
51	165
52	194
53	96
54	34
55	23
56	5
57	1
60	77
61	15
62	57
63	216
64	55
65	83
66	122
67	88
68	61
69	37
70	4
71	2
72	4
73	56
74	31
75	107
76	71
77	145
78	36
79	14
80	12
81	3
82	4
83	11
84	11
85	40
86	13
87	17
88	13
89	143
90	38
91	18
92	31
93	9
94	19
95	5
96	4
97	10
99	51
100	10
101	24
102	42
103	21
104	33
105	10
106	12
107	3
108	8
109	8
110	42
111	23
112	18
113	14
114	26
115	16
116	29
117	15
118	4
119	6
121	5
122	4
123	21
124	11
125	59
126	18
127	28
128	11
129	7
130	3
131	15
132	6
133	2
134	6
135	10
136	13
137	16
138	27
139	6
140	26
141	14
142	25
143	10
144	3
145	2
146	2
147	0
148	3
149	4
150	21
151	17
152	19
153	22
154	12
155	15
156	10
157	5
158	3
160	2
161	7
162	19
163	26
164	19
165	57
166	21
167	22
168	18
169	24
170	28
171	6
172	2
173	0
174	1
175	5
176	12
177	17
178	14
179	15
180	26
181	12
182	6
183	2
184	4
185	2
187	24
188	11
189	24
190	14
191	17
192	10
193	6
194	7
195	40
196	28
197	25
198	4
199	1
200	0
201	1
202	6
203	27
204	71
205	28
206	33
207	7
208	3
209	0
210	2
211	3
212	15
213	4
214	8
215	35
216	14
217	22
218	4
219	14
220	5
221	3
222	7
223	6
224	2
228	3
229	25
230	9
231	48
232	22
233	41
234	39
235	27
236	7
237	9
238	13
239	48
240	10
241	1
242	1
245	4
246	147
247	74
248	56
249	18
250	3
256	10
257	9
258	14
259	14
260	5
261	3
272	1
273	160
274	588
275	153
276	208
277	22
