Mass Spectrum: 1-Phenyl-3-piperidin-1-yl-propan-1,3-dion
Formula: C14H17NO2
CAS: 58792-29-3
Molecular weight: 231
m/z	intensity
12	0
13	0
14	2
15	31
16	1
17	6
18	23
25	0
26	9
27	70
28	123
29	69
30	59
31	2
37	1
38	5
39	67
40	10
41	149
42	138
43	58
44	54
45	3
50	37
51	126
52	15
53	17
54	26
55	88
56	130
57	50
58	3
59	1
60	0
61	1
62	4
63	15
64	4
65	33
66	3
67	12
68	13
69	256
70	36
71	4
72	1
74	10
75	13
76	23
77	346
78	53
79	9
80	4
81	3
82	17
83	36
84	999
85	162
86	12
87	1
88	1
89	15
90	7
91	33
92	7
93	1
94	0
95	0
96	2
97	3
98	7
99	1
102	10
103	9
105	321
106	27
107	2
108	1
110	3
111	0
112	13
113	1
115	1
116	1
117	1
118	4
120	93
121	10
122	1
124	1
126	252
127	21
128	2
129	3
130	1
131	2
132	1
133	1
134	1
136	2
144	1
145	1
146	4
147	63
148	8
149	0
152	0
154	8
155	1
156	0
160	0
162	2
171	0
172	0
174	1
184	0
185	0
186	0
188	1
202	1
203	1
212	0
214	86
215	14
216	1
231	103
232	19
233	2
