Mass Spectrum: 4,6-Diamino-1-[2,4-dichlorophenyl]pyrazolo[3,4-d]pyrimidine
Formula: C11H8Cl2N6
CAS: 58791-58-5
Molecular weight: 294
m/z	intensity
42	143
43	999
44	31
45	3
47	10
48	0
49	31
50	47
51	54
52	200
53	113
54	48
55	19
56	4
57	2
60	8
61	31
62	51
63	61
64	38
65	43
66	81
67	85
68	69
69	56
70	8
72	21
73	61
74	83
75	85
76	13
77	77
78	41
79	23
80	18
81	10
82	7
83	4
84	28
85	30
86	20
87	23
88	41
89	12
90	19
91	12
92	30
93	6
94	10
95	7
96	17
97	33
98	22
99	27
100	33
101	11
102	7
103	8
104	5
105	6
106	1
107	13
108	19
109	146
110	29
111	45
112	16
113	7
114	5
115	6
116	5
117	4
118	2
119	6
120	3
121	5
122	10
123	3
124	105
125	8
126	52
127	15
128	5
129	42
131	14
133	42
134	13
135	32
136	29
137	16
138	10
139	11
140	3
141	2
142	2
143	1
145	114
147	83
148	28
149	16
150	8
151	6
152	15
153	9
154	13
155	5
156	4
157	4
158	4
159	14
160	33
161	32
162	28
163	36
165	21
166	2
167	4
168	1
169	0
170	3
171	17
172	18
173	12
174	11
175	6
176	5
177	5
178	12
179	4
180	6
181	12
182	31
183	5
184	1
185	6
186	13
187	14
188	14
189	27
190	79
191	8
192	40
193	5
194	4
195	1
196	1
197	10
198	1
199	8
200	2
201	3
202	2
203	2
204	7
205	8
206	1
207	7
209	7
210	5
211	7
212	10
213	4
214	6
215	17
216	45
217	303
218	29
219	125
220	11
221	1
222	1
223	5
224	20
225	9
226	3
227	2
228	1
229	1
230	0
231	1
232	8
234	10
236	7
238	3
239	1
240	0
241	1
242	25
243	7
244	8
245	2
249	0
250	1
251	8
252	13
253	14
254	6
255	6
256	2
257	4
258	16
259	459
260	40
261	197
262	14
263	1
266	1
268	1
277	2
278	1
279	1
293	4
294	453
295	68
296	301
297	44
298	51
299	7
