Mass Spectrum: 4,6-Diamino-1-[.beta.-hydroxyethyl]-3-methylpyrazolo[3,4-d]pyrimidine
Formula: C8H12N6O
CAS: 58791-65-4
Molecular weight: 208
m/z	intensity
41	128
42	488
43	999
44	103
45	100
47	13
48	7
49	61
50	13
51	52
52	78
53	100
54	52
55	63
56	18
57	21
58	5
59	4
60	12
61	5
62	6
63	31
64	93
65	107
66	285
67	297
68	169
69	140
70	32
71	18
72	10
73	7
74	5
75	6
76	11
77	71
78	82
79	105
80	87
81	99
82	33
83	25
84	19
85	19
86	9
88	8
89	15
90	7
91	38
92	37
93	48
94	64
95	13
96	8
97	7
98	5
105	13
106	93
107	89
108	88
109	17
110	19
111	5
115	4
118	9
119	4
121	24
122	52
123	20
124	8
125	5
126	11
131	6
132	9
133	24
135	303
136	22
146	8
147	27
148	72
149	46
150	26
151	5
160	85
161	9
162	8
163	41
164	190
165	154
166	13
175	18
177	811
178	198
179	15
208	239
209	43
