Mass Spectrum: Bicyclo[3.1.0]hexane-6-carboxylic acid, 1,4,4-trimethyl-2-oxo-, (1.alpha.,5.alpha.,6.alpha.)-(.+-.)-
Formula: C10H14O3
CAS: 58795-37-2
Molecular weight: 182
m/z	intensity
26	12
27	178
28	40
29	112
30	3
31	14
37	3
38	15
39	247
40	44
41	472
42	99
43	453
44	34
45	56
46	6
47	3
49	7
50	26
51	76
52	48
53	186
54	38
55	273
56	139
57	68
58	27
59	54
60	20
61	5
62	10
63	19
64	7
65	60
66	21
67	215
68	51
69	331
70	557
71	70
72	17
73	21
74	8
75	4
76	4
77	146
78	32
79	160
80	34
81	111
82	71
83	206
84	30
85	332
86	63
87	21
88	3
89	6
90	2
91	93
92	14
93	189
94	56
95	182
96	144
97	130
98	538
99	56
100	22
101	22
102	6
103	9
104	3
105	40
106	7
107	66
108	88
109	493
110	71
111	123
112	95
113	999
114	158
115	24
116	9
117	5
119	14
120	6
121	102
122	76
123	132
124	25
125	308
126	90
127	26
128	12
129	12
130	7
131	3
133	5
135	18
136	99
137	583
138	80
139	198
140	76
141	19
149	90
150	10
151	14
152	6
153	16
154	27
155	11
163	3
164	51
165	24
166	25
167	148
168	21
181	3
182	486
183	79
184	19
185	6
