Mass Spectrum: 8-Oxabicyclo[5.1.0]oct-5-en-2-ol, 1,4,4-trimethyl-
Formula: C10H16O2
CAS: 58795-43-0
Molecular weight: 168
m/z	intensity
26	4
27	79
28	11
29	77
30	2
31	13
38	6
39	128
40	23
41	204
42	25
43	688
44	23
45	40
50	6
51	23
52	9
53	62
54	13
55	122
56	44
57	35
58	8
59	30
60	22
61	5
62	2
63	8
64	2
65	34
66	27
67	64
68	19
69	146
70	21
71	96
72	7
73	2
74	2
77	36
78	7
79	55
80	15
81	89
82	24
83	180
84	251
85	26
86	3
87	2
91	50
92	10
93	47
94	27
95	361
96	27
97	283
98	173
99	19
100	6
103	3
105	16
106	6
107	162
108	79
109	312
110	38
111	113
112	41
113	8
115	2
117	3
119	2
121	11
122	6
123	30
124	19
125	999
126	90
127	6
128	2
135	64
136	7
137	2
139	6
140	3
149	2
150	21
151	6
153	45
154	5
168	147
169	17
