Mass Spectrum: 4,6-Diamino-3-[p-chlorophenyl]-1-[2-hydroxyethyl]pyrazolo[3,4-d]pyrimidine
Formula: C13H13ClN6O
CAS: 58791-71-2
Molecular weight: 304
m/z	intensity
43	999
44	179
45	89
46	0
47	1
50	57
51	51
52	34
53	46
54	26
55	58
56	4
57	2
58	0
61	11
62	12
63	22
64	14
65	27
66	68
67	101
68	58
69	24
70	5
72	2
73	17
75	228
76	55
77	31
78	8
79	10
80	8
81	4
82	6
83	9
85	26
86	8
87	12
88	7
89	5
90	4
92	36
93	11
94	23
95	3
96	3
97	4
99	26
100	22
101	13
102	30
103	8
104	7
105	1
106	8
108	10
109	2
111	117
112	7
113	46
114	21
115	13
116	5
117	3
118	3
119	3
121	7
123	11
124	9
125	7
126	57
127	31
128	7
129	3
130	2
131	2
132	0
133	5
134	10
135	29
136	15
137	21
138	30
139	7
140	11
141	7
142	11
143	3
144	1
145	0
146	2
148	4
149	3
150	6
151	7
152	8
153	11
154	6
155	14
156	4
157	1
158	1
159	0
161	27
162	49
163	49
164	21
165	13
166	4
167	7
168	8
169	7
170	2
171	0
173	1
175	30
176	15
177	19
178	5
179	4
180	2
181	2
182	2
183	2
184	2
185	0
187	10
188	2
189	14
190	4
191	3
192	2
193	1
195	17
196	8
197	4
198	0
202	22
204	52
205	7
206	13
207	2
208	1
209	12
210	2
211	1
212	0
214	3
215	2
216	2
217	3
218	7
219	3
220	3
221	2
222	2
223	0
224	2
225	6
226	3
227	2
228	0
229	5
231	51
232	8
233	20
234	2
235	0
237	15
238	15
239	2
242	0
243	2
244	8
245	3
246	6
247	1
248	1
254	1
256	10
257	1
259	103
260	62
261	71
262	27
263	19
264	2
268	1
269	1
271	6
273	349
274	77
275	130
276	23
277	2
287	2
289	0
304	219
305	36
306	77
307	12
308	1
