Mass Spectrum: Amphetamine-3-methyl
Formula: C10H15N
CAS: 588-06-7
Molecular weight: 149
m/z	intensity
39	52
41	17
42	65
44	999
45	45
51	20
53	11
63	9
65	20
77	28
78	9
79	13
91	25
103	8
105	15
106	5
115	3
117	3
118	1
132	1
134	3
