Mass Spectrum: Butane, 1,1',1''-[methylidynetris(oxy)]tris-
Formula: C13H28O3
CAS: 588-43-2
Molecular weight: 232
m/z	intensity
40	10
41	280
42	40
43	60
44	10
45	10
47	30
53	10
55	50
56	110
57	999
58	50
63	10
73	10
74	10
103	110
104	10
119	2
159	100
160	4
175	2
231	4
