Mass Spectrum: m,m'-Dimethylazobenzene
Formula: C14H14N2
CAS: 588-04-5
Molecular weight: 210
m/z	intensity
15	2
26	2
27	11
28	4
29	1
37	3
38	9
39	84
40	9
41	30
42	5
43	6
44	4
50	11
51	32
52	12
53	9
54	4
55	6
56	2
57	8
61	2
62	8
63	27
64	9
65	206
66	11
67	4
69	7
70	3
71	3
74	2
75	6
76	5
77	27
78	9
79	20
80	7
81	3
82	2
83	4
84	2
85	3
89	36
90	30
91	999
92	102
93	6
94	3
95	2
96	2
97	3
102	2
103	2
104	8
105	9
106	86
107	108
108	11
109	2
111	3
112	2
115	6
119	102
120	10
121	5
128	4
129	2
139	2
141	9
142	2
143	2
149	2
151	3
152	26
153	9
154	2
155	3
164	3
165	43
166	35
167	33
168	5
178	3
179	4
180	5
181	20
182	8
183	2
193	2
194	2
195	3
208	4
209	2
210	276
211	49
212	18
213	3
