Mass Spectrum: Benzene, (2-bromoethenyl)-, (Z)-
Formula: C8H7Br
CAS: 588-73-8
Molecular weight: 182
m/z	intensity
26	10
27	26
29	7
37	14
38	35
39	61
40	19
43	0
44	3
49	12
50	199
51	387
52	75
53	5
61	15
62	39
63	92
64	4
65	1
73	9
74	85
75	78
76	113
77	559
78	34
79	2
80	0
81	2
86	1
87	7
91	11
92	9
98	11
99	1
101	14
102	185
103	999
104	131
105	4
182	178
183	13
184	172
185	12
