Mass Spectrum: 2-Nitrobenzaldehyde tosylhydrazone
Formula: C14H13N3O4S
CAS: 58809-90-8
Molecular weight: 319
m/z	intensity
16	1
17	1
18	4
26	4
27	22
28	113
29	10
30	42
32	2
34	2
36	1
37	11
38	24
39	111
40	10
41	37
42	2
43	6
44	42
45	31
46	3
47	2
48	21
49	6
50	78
51	346
52	108
53	19
54	2
55	5
56	1
57	5
58	2
59	2
60	5
61	16
62	46
63	132
64	156
65	393
66	34
67	44
68	4
69	10
70	3
71	7
73	5
74	20
75	21
76	61
77	358
78	105
79	133
80	36
81	5
82	3
83	3
84	4
85	9
86	10
87	10
88	5
89	78
90	50
91	999
92	582
93	68
94	6
95	11
96	3
97	5
98	1
99	1
102	1
103	4
104	17
105	60
106	48
107	121
108	81
109	13
110	4
111	28
112	2
113	2
115	1
117	2
118	3
119	28
120	18
121	37
122	16
123	32
124	59
125	7
126	3
127	1
128	1
129	1
134	1
135	76
136	65
137	14
138	5
139	337
140	66
141	20
142	3
149	1
150	1
151	2
152	5
153	2
154	2
155	15
156	351
157	35
158	18
159	2
163	89
164	9
165	5
166	3
167	7
168	3
169	1
170	1
172	1
177	1
178	2
179	3
180	6
181	7
182	9
183	2
184	3
185	1
191	1
192	2
193	5
194	6
195	3
196	4
197	2
198	2
199	4
200	1
205	1
206	1
207	1
208	2
209	3
210	4
211	4
212	1
213	3
214	12
215	2
216	1
220	1
226	1
227	1
228	1
230	2
236	1
245	1
246	7
247	2
259	1
260	1
262	2
275	2
278	6
279	1
