Mass Spectrum: 4-Pentenamide, N-phenyl-
Formula: C11H13NO
CAS: 58804-62-9
Molecular weight: 175
m/z	intensity
26	3
27	32
29	33
30	1
37	1
38	6
39	53
41	17
42	2
43	1
49	0
50	8
51	29
52	8
53	19
54	8
55	181
56	8
57	0
61	1
62	3
63	12
64	13
65	61
66	54
67	5
68	0
73	0
74	2
75	1
76	3
77	55
78	7
79	4
80	0
81	1
82	2
83	15
84	1
88	0
89	0
90	1
91	11
92	31
93	999
94	77
95	2
101	0
102	0
103	1
104	3
105	1
106	5
107	0
115	0
116	0
117	2
118	3
119	16
120	11
121	0
128	0
129	0
130	2
131	1
132	2
133	1
134	0
135	0
144	0
146	1
147	0
148	0
156	1
157	0
160	4
161	0
174	2
175	141
176	18
177	1
