Mass Spectrum: Spirosol-5-en-3-ol, 28-acetyl-, (3.beta.,22.alpha.,25R)-
Formula: C29H45NO3
CAS: 58822-29-0
Molecular weight: 455
m/z	intensity
41	168
42	33
43	459
44	86
45	63
49	102
53	51
55	433
56	55
57	127
58	88
60	83
67	168
69	113
70	85
72	98
73	68
77	83
79	203
81	213
82	53
83	132
84	177
86	99
91	247
92	15
93	224
94	35
95	233
96	81
97	49
99	16
100	90
101	59
105	236
106	34
107	243
108	99
109	269
110	54
111	39
112	77
114	999
115	108
117	80
119	168
120	56
121	207
122	61
123	68
124	75
125	40
126	104
127	51
128	56
129	76
131	126
133	219
135	77
141	22
142	33
143	98
144	54
145	169
147	174
148	37
149	80
155	55
156	205
157	171
158	61
159	158
160	31
161	110
162	88
163	128
164	88
165	51
171	66
173	70
174	99
175	98
182	17
183	39
185	90
186	59
197	31
198	67
199	53
214	72
215	72
252	63
253	236
254	54
269	55
271	615
272	121
315	34
342	60
355	452
356	109
383	96
396	53
455	217
456	69
