Mass Spectrum: 1,2-Diethyl-1,2-dihydro-3,6-diphenyl-S-tetrazine
Formula: C18H20N4
CAS: 58822-96-1
Molecular weight: 292
m/z	intensity
50	32
51	51
76	70
77	121
103	172
104	999
105	96
118	32
132	548
133	64
147	25
263	363
264	89
292	459
293	108
