Mass Spectrum: S-Tetrazine, 1,2-dihydro-1,2-dimethyl-3,6-diphenyl-
Formula: C16H16N4
CAS: 58822-95-0
Molecular weight: 264
m/z	intensity
43	97
50	40
51	65
76	48
77	185
91	48
103	89
104	32
118	999
119	97
264	145
265	28
