Mass Spectrum: 1-Cyclohepten-3,6-dione, 2,5,5-trimethyl-, dioxime
Formula: C10H16N2O2
CAS: 58870-13-6
Molecular weight: 196
m/z	intensity
26	33
27	379
28	473
29	208
30	95
31	89
37	13
38	39
39	597
40	136
41	764
42	617
43	274
44	98
45	43
46	15
50	61
51	207
52	321
53	854
54	390
55	522
56	224
57	157
58	106
59	744
60	55
62	15
63	58
64	57
65	246
66	203
67	324
68	255
69	192
70	134
71	63
72	26
73	40
74	112
75	27
76	28
77	324
78	180
79	909
80	474
81	320
82	419
83	110
84	67
85	26
86	15
87	21
89	30
90	22
91	263
92	156
93	486
94	999
95	279
96	281
97	107
98	97
99	23
102	17
103	50
104	108
105	394
106	277
107	336
108	254
109	142
110	453
111	91
112	60
113	11
115	31
116	46
117	106
118	166
119	460
120	481
121	333
122	426
123	194
124	170
125	28
126	13
127	19
128	27
129	16
130	61
131	82
132	226
133	150
134	240
135	278
136	129
137	106
138	150
139	29
140	17
141	13
143	19
144	49
145	151
146	317
147	304
148	301
149	465
150	123
151	47
152	22
153	15
154	24
155	12
156	17
159	73
160	44
161	391
162	273
163	344
164	449
165	171
166	93
167	26
168	11
177	25
178	72
179	385
180	138
181	146
182	18
195	10
196	814
197	107
198	12
