Mass Spectrum: 1,13-Tetradecadien-3-one
Formula: C14H24O
CAS: 58879-40-6
Molecular weight: 208
m/z	intensity
26	8
27	157
28	51
29	104
30	3
31	6
32	4
35	1
36	6
38	4
39	84
40	24
41	300
42	62
43	104
44	13
45	15
50	2
51	7
52	5
53	40
54	54
55	889
56	60
57	60
58	9
59	6
60	1
63	2
64	2
65	11
66	10
67	93
68	49
69	100
70	999
71	169
72	11
74	2
75	1
77	16
78	9
79	58
80	41
81	106
82	58
83	333
84	56
85	24
91	22
92	12
93	51
94	71
95	136
96	96
97	113
98	60
99	13
100	2
101	2
102	1
103	2
105	17
106	10
107	46
108	38
109	182
110	47
111	129
112	44
113	25
114	1
115	5
116	1
117	3
118	1
119	23
120	12
121	40
122	17
123	47
124	30
125	42
126	37
127	6
128	3
129	2
133	22
134	14
135	20
136	24
137	38
138	15
139	63
140	10
141	6
142	1
143	1
145	2
147	20
148	9
207	1
208	3
209	1
