Mass Spectrum: cis-4-Trimethylsilyloxy-cyclohexyl(trimethylsilyl)carboxylate
Formula: C13H28O3Si2
CAS: 58877-77-3
Molecular weight: 288
m/z	intensity
15	1
27	7
29	11
31	3
39	14
41	48
42	6
43	38
44	24
45	164
46	12
47	78
48	4
49	3
50	1
51	3
52	3
53	46
54	26
55	87
56	6
57	13
58	21
59	101
60	18
61	76
62	5
63	3
64	1
65	8
66	9
67	28
68	6
69	12
70	10
71	10
72	35
73	999
74	100
75	651
76	47
77	52
78	9
79	105
80	72
81	967
82	69
83	7
84	2
85	20
86	4
87	14
88	3
89	12
90	1
91	7
92	1
93	2
94	1
95	3
96	1
97	7
98	4
99	23
101	192
102	27
103	26
104	3
105	6
106	1
107	11
108	52
109	74
110	6
111	9
112	3
113	26
114	7
115	18
116	318
117	62
118	16
119	9
120	1
121	1
123	3
125	2
126	1
127	18
129	824
130	98
131	62
132	8
133	100
134	14
135	10
136	1
137	2
138	5
139	37
140	6
141	12
142	14
143	22
144	26
145	7
147	765
148	120
149	108
150	13
151	8
152	1
153	1
154	16
155	69
156	14
157	8
158	1
159	2
161	1
163	1
165	3
166	1
167	4
168	3
169	66
170	389
171	77
172	19
173	4
175	1
177	3
179	1
180	1
181	4
182	9
183	333
184	51
185	16
186	1
189	1
190	1
191	2
197	2
198	69
199	37
200	7
201	2
203	33
204	17
205	5
206	1
217	144
218	29
219	13
220	2
229	1
232	82
233	17
234	7
235	1
243	2
244	1
245	13
246	3
247	1
257	22
258	4
259	5
260	60
261	14
262	5
263	1
270	3
271	2
273	503
274	114
275	47
276	7
277	1
287	2
288	25
289	6
290	2
