Mass Spectrum: 3,6-Di-m-tolyl-1,2,4,5-tetrazine
Formula: C16H14N4
CAS: 58884-41-6
Molecular weight: 262
m/z	intensity
39	40
63	40
89	130
90	250
91	50
116	210
117	999
118	170
262	160
263	40
264	30
