Mass Spectrum: Galactitol, cyclic 2,3:4,5-bis(ethylboronate) 1,6-bis(diethylborinate)
Formula: C18H38B4O6
CAS: 58881-47-3
Molecular weight: 394
m/z	intensity
27	10
28	86
29	18
30	1
31	3
32	5
39	6
41	25
42	12
43	56
44	6
45	5
49	0
50	0
51	0
52	1
53	6
54	6
55	19
56	17
57	60
58	6
59	13
61	0
65	3
66	2
67	9
68	7
69	51
70	25
71	39
72	2
73	3
74	0
77	1
78	1
79	4
80	2
81	18
82	17
83	57
84	30
85	13
86	4
87	10
88	0
91	0
92	0
93	2
94	2
95	7
96	10
97	74
98	452
99	999
100	51
101	11
105	0
107	1
108	2
109	8
110	112
111	499
112	183
113	78
114	5
115	4
120	0
121	1
122	3
123	19
124	86
125	106
126	13
127	9
128	12
129	34
130	2
131	0
133	0
134	1
135	3
136	4
137	25
138	61
139	51
140	25
141	46
142	7
143	5
145	0
147	0
148	5
149	19
150	5
151	7
152	5
153	9
154	12
155	22
156	3
157	3
158	0
163	1
164	3
165	12
166	45
167	113
168	25
169	23
170	5
171	8
172	1
173	0
177	1
178	4
179	12
180	14
181	20
182	5
183	7
184	6
185	4
186	0
191	0
192	2
193	9
194	16
195	27
196	134
197	227
198	34
199	17
200	1
203	0
204	0
205	2
206	1
207	4
208	15
209	34
210	21
211	28
212	3
219	1
220	8
221	27
222	57
223	48
224	5
225	0
226	0
227	1
228	0
233	0
234	3
235	7
236	2
237	2
239	1
240	1
241	0
242	0
243	0
244	2
245	0
248	1
249	2
250	0
251	1
252	4
253	4
254	0
263	2
264	3
265	3
266	6
267	8
268	1
277	0
278	1
279	2
280	0
290	2
291	3
294	0
295	1
296	3
297	3
298	0
309	0
332	0
362	0
363	2
365	7
366	1
