Mass Spectrum: 1-(p-Bromobenzyl)-s-tetrazine
Formula: C9H7BrN4
CAS: 58884-56-3
Molecular weight: 250
m/z	intensity
29	5
36	2
37	10
38	30
39	67
40	11
41	7
42	1
43	12
44	16
45	3
49	7
50	99
51	43
52	8
53	1
55	1
56	4
57	44
58	42
60	1
61	11
62	41
63	100
64	30
65	16
66	3
68	4
69	2
71	2
73	5
74	33
75	42
76	37
77	7
78	1
79	3
80	7
81	3
82	8
84	1
85	3
86	6
87	14
88	38
89	230
90	73
91	4
93	1
96	1
97	6
98	6
99	1
100	1
101	1
102	2
103	1
105	1
106	1
107	1
111	1
113	1
114	19
115	42
116	999
117	98
118	3
119	3
129	1
130	1
131	1
143	2
145	1
152	1
155	2
156	1
157	2
167	2
168	1
169	15
170	2
171	12
172	1
181	1
194	11
195	213
196	35
197	203
198	15
211	1
226	2
241	1
250	139
251	10
252	150
253	12
254	8
255	1
