Mass Spectrum: Galactitol, cyclic 1,6:2,3:4,5-tris(ethylboronate)
Formula: C12H23B3O6
CAS: 58881-48-4
Molecular weight: 296
m/z	intensity
27	12
28	85
29	16
30	1
32	4
36	1
38	0
39	6
40	3
41	22
42	17
43	60
44	9
45	5
47	0
49	0
50	1
51	1
52	1
53	7
54	6
55	24
56	15
57	54
58	3
59	9
63	1
65	2
66	2
67	4
68	6
69	29
70	20
71	11
72	0
73	2
74	0
77	1
78	1
79	1
80	1
81	11
82	14
83	44
84	23
85	9
86	2
87	6
91	1
93	1
94	1
95	4
96	8
97	70
98	475
99	999
100	50
101	7
105	1
108	1
109	7
110	91
111	409
112	168
113	31
114	4
115	3
120	0
122	2
123	15
124	62
125	27
126	5
127	6
128	9
129	21
130	1
131	0
135	1
136	2
137	15
138	52
139	37
140	18
141	35
142	6
143	2
148	1
149	1
150	2
151	4
152	3
153	6
154	7
155	15
156	3
157	3
163	1
164	1
165	7
166	13
167	17
168	11
169	13
170	4
171	7
172	1
178	1
179	3
180	5
181	5
182	2
183	3
184	6
185	5
192	2
193	9
194	16
195	27
196	116
197	193
198	30
199	16
200	1
206	0
207	3
208	15
209	30
210	16
211	23
212	2
213	0
219	1
220	6
221	25
222	36
223	5
224	0
225	0
235	0
236	1
237	1
239	0
240	1
241	0
248	0
249	1
250	0
251	1
252	3
253	6
263	2
264	3
265	4
266	6
267	9
268	0
294	0
295	0
296	1
