Mass Spectrum: 2,5-Hexadienoic acid, methyl ester
Formula: C7H10O2
CAS: 5889-42-9
Molecular weight: 126
m/z	intensity
25	3
26	25
27	98
28	7
29	36
30	6
31	14
33	2
34	0
35	0
36	1
37	22
38	66
39	440
40	84
41	508
42	27
43	25
44	4
45	15
46	1
47	0
48	0
49	4
50	21
51	32
52	15
53	45
54	20
55	74
56	5
57	4
58	1
59	178
60	7
61	14
62	15
63	27
64	5
65	216
66	255
67	999
68	74
69	28
70	2
71	63
72	9
73	0
74	4
77	6
78	1
79	9
80	1
81	10
82	1
83	36
84	173
85	18
86	1
87	1
91	0
92	0
93	9
94	25
95	224
96	19
97	10
98	49
99	4
100	0
102	0
109	2
110	0
111	251
112	19
113	1
119	0
125	15
126	6
127	1
