Mass Spectrum: 1,3-Pentanediamine
Formula: C5H14N2
CAS: 589-37-7
Molecular weight: 102
m/z	intensity
14	2
15	16
16	2
17	18
18	189
25	1
26	9
27	57
28	229
29	56
30	808
31	22
32	13
35	1
36	7
37	6
38	4
39	35
40	18
41	336
42	155
43	114
44	938
45	106
46	4
47	3
50	3
51	6
52	9
53	14
54	42
55	58
56	877
57	96
58	999
59	62
60	2
63	1
65	3
66	3
67	15
68	15
69	21
70	102
71	25
72	81
73	203
74	8
77	1
78	1
79	2
80	5
81	4
82	16
83	6
84	144
85	763
86	50
87	4
96	3
97	2
98	4
99	4
102	2
103	9
104	1
