Mass Spectrum: 2-Acetamido-3-(4-methylpiperazino)-1,4-naphthoquinone
Formula: C17H19N3O3
CAS: 58907-87-2
Molecular weight: 313
m/z	intensity
41	23
42	402
43	613
44	93
47	21
48	9
49	5
50	10
51	11
54	22
55	26
56	100
57	77
58	89
63	6
67	6
68	16
69	12
70	999
71	124
72	227
73	11
75	12
76	54
77	46
78	6
81	6
82	50
83	58
84	12
85	87
87	9
88	9
89	45
90	15
91	5
95	7
97	254
98	78
99	19
101	11
102	25
103	25
104	55
105	79
106	5
114	10
115	19
116	25
117	24
118	5
126	10
127	13
128	14
129	20
130	21
131	9
132	9
133	20
143	6
144	27
145	31
146	9
154	12
155	8
156	9
157	12
158	28
159	21
160	30
161	5
170	11
171	20
172	34
173	19
174	11
182	10
183	13
184	11
185	6
186	56
187	25
188	9
197	8
198	17
199	140
200	94
201	68
202	10
210	13
211	19
212	23
213	99
214	49
215	20
224	5
225	25
226	15
227	118
228	88
229	17
239	23
240	10
241	8
242	8
243	21
252	6
254	49
255	15
256	24
257	6
269	6
270	70
271	23
280	6
298	23
312	9
313	663
314	136
315	18
