Mass Spectrum: O-Methyl O'-ethyl methylphosphonite
Formula: C4H11O2P
CAS: 58910-87-5
Molecular weight: 122
m/z	intensity
41	82
45	72
46	31
47	186
48	27
49	37
62	46
63	126
65	26
72	29
77	130
78	28
79	999
80	35
91	12
93	91
94	52
95	36
99	10
107	209
108	6
113	11
122	183
123	19
