Mass Spectrum: Methyl 4-O-methyl-.beta.-D-xylopyranoside
Formula: C7H14O5
CAS: 58918-59-5
Molecular weight: 178
m/z	intensity
52	10
55	20
56	15
57	163
58	549
59	609
60	849
61	184
62	10
69	31
70	78
71	15
72	41
73	26
74	289
75	41
76	63
79	31
83	20
85	26
86	41
87	999
88	259
89	26
98	15
99	20
100	63
103	15
114	36
115	10
117	10
118	15
119	4
120	10
129	15
130	41
133	10
136	10
147	52
148	10
