Mass Spectrum: Silane, trimethyl[(1-methylethylidene)cyclopropyl]-
Formula: C9H18Si
CAS: 58926-07-1
Molecular weight: 154
m/z	intensity
26	5
27	33
28	6
29	13
31	12
37	1
38	3
39	40
40	8
41	34
42	8
43	71
44	19
45	86
46	7
47	3
50	4
51	7
52	4
53	17
54	3
55	20
56	43
57	9
58	30
59	150
60	10
61	6
62	2
63	3
65	6
66	4
67	17
68	2
69	26
70	6
71	15
72	24
73	999
74	83
75	34
76	1
77	8
78	1
79	27
80	16
81	8
82	3
83	140
84	16
85	245
86	29
87	10
88	1
91	2
93	4
94	1
95	17
96	5
97	87
98	69
99	64
100	23
101	7
107	2
109	13
110	3
111	59
112	48
113	23
114	3
115	3
121	1
123	21
124	3
125	12
126	31
127	5
128	1
137	8
138	6
139	346
140	43
141	18
142	1
143	4
147	1
154	64
155	9
156	3
