Mass Spectrum: Vittatine acetate
Formula: C18H19NO4
CAS: 58944-39-1
Molecular weight: 313
m/z	intensity
42	291
43	999
44	381
45	42
47	12
48	5
49	66
50	45
51	146
52	35
53	63
54	62
55	113
56	311
57	182
60	32
61	6
62	25
63	93
64	39
65	75
66	18
67	34
68	23
69	32
70	50
71	37
73	6
74	20
75	50
76	93
77	153
78	52
79	25
80	31
81	26
82	52
83	116
84	93
85	16
86	32
87	20
88	23
89	60
90	27
91	54
92	16
93	13
94	80
95	11
96	32
98	59
99	22
101	35
102	62
103	55
104	28
105	26
106	16
107	6
108	1
109	3
110	5
111	38
112	42
113	34
114	31
115	162
116	37
117	21
118	17
119	14
120	3
121	3
122	3
123	2
124	6
126	45
127	112
128	163
129	109
130	40
131	28
132	21
133	4
135	39
136	7
137	4
138	8
139	88
140	45
141	72
142	19
143	25
144	11
145	6
146	3
147	6
148	6
149	9
150	6
151	20
152	85
153	62
154	30
155	30
156	18
157	75
158	16
159	35
160	56
161	24
162	7
163	5
164	7
165	51
167	83
168	50
169	28
170	12
171	17
172	49
173	55
174	32
175	15
176	6
177	5
178	7
179	6
180	13
181	114
182	22
183	11
185	69
186	37
187	189
188	49
189	8
190	2
191	5
192	4
193	10
194	28
195	44
196	21
197	28
198	156
199	108
200	60
201	134
202	33
203	4
204	2
207	4
209	25
210	22
211	95
212	62
213	23
214	42
215	73
216	336
217	45
218	5
220	1
222	10
223	28
224	176
225	100
226	67
227	37
228	53
229	17
230	3
236	2
237	5
238	20
239	6
240	18
241	11
242	24
243	6
244	3
246	2
249	1
250	7
252	219
253	121
254	387
255	63
256	10
257	2
258	2
267	1
268	4
270	127
271	27
272	14
273	2
284	26
285	19
286	15
287	2
298	4
299	1
310	10
313	478
314	105
315	14
316	1
