Mass Spectrum: 2-Furanpropionic acid, 3-methyl-.beta.-oxo-, methyl ester
Formula: C9H10O4
CAS: 5896-38-8
Molecular weight: 182
m/z	intensity
39	50
43	50
44	240
52	50
53	80
108	180
109	999
110	80
124	190
150	170
151	60
182	160
