Mass Spectrum: Pyrimidine, 5-chloro-2,4-bis[(trimethylsilyl)oxy]-
Formula: C10H19ClN2O2Si2
CAS: 58990-53-7
Molecular weight: 290
m/z	intensity
26	4
27	13
28	22
29	47
30	4
31	14
32	0
33	0
34	0
35	1
36	5
37	0
38	2
39	6
40	2
41	3
42	16
43	158
44	77
45	468
46	30
47	27
48	2
49	1
50	1
51	6
52	16
53	17
54	9
55	31
56	15
57	30
58	35
59	78
60	10
61	10
62	1
63	29
64	3
65	33
66	150
67	21
68	5
69	9
70	53
71	16
72	76
73	999
74	120
75	93
76	13
77	8
78	15
79	70
80	10
81	24
82	3
83	8
84	17
85	11
86	23
87	9
88	3
89	4
90	2
91	2
92	5
93	77
94	9
95	29
96	4
97	5
98	9
99	34
100	132
101	19
102	12
103	15
104	31
105	17
106	6
107	3
108	2
109	2
110	4
111	9
112	4
113	6
114	3
115	22
116	11
117	22
118	6
119	13
120	10
121	4
122	6
123	5
124	4
125	2
126	2
127	23
128	7
129	5
130	207
131	172
132	24
133	181
134	20
135	54
136	6
137	6
138	2
139	3
140	2
141	1
142	3
143	6
144	7
145	4
146	4
147	735
148	135
149	69
150	7
151	12
152	2
153	6
154	1
155	1
156	3
157	9
158	29
159	7
160	65
161	8
162	21
163	2
164	1
165	0
166	1
167	10
168	2
169	13
170	3
171	2
172	1
173	1
174	11
175	6
176	3
177	2
178	2
179	1
180	1
181	1
182	1
183	2
184	3
185	57
186	10
187	8
188	2
189	2
190	1
191	1
192	1
193	0
194	1
195	0
196	1
197	2
198	1
199	1
200	3
201	5
202	6
203	8
204	3
205	3
206	1
207	0
208	0
209	0
210	1
211	0
212	8
213	1
214	0
215	0
216	2
217	7
218	3
219	3
220	7
221	3
222	4
224	19
225	11
227	2
228	1
233	2
234	1
235	1
236	0
237	1
238	1
239	56
240	13
241	5
242	1
243	0
244	0
245	4
246	1
247	2
248	2
250	2
251	2
252	1
253	2
254	10
255	531
256	121
257	48
258	7
259	4
260	2
261	4
262	2
263	1
265	0
266	0
268	1
273	6
275	973
276	244
277	476
278	88
279	34
280	4
281	1
282	0
284	0
285	0
286	0
287	0
289	10
290	230
291	54
292	96
293	18
294	7
295	1
