Mass Spectrum: Broxuridine
Formula: C9H11BrN2O5
CAS: 59-14-3
Molecular weight: 306
m/z	intensity
41	134
42	73
43	471
44	106
45	439
47	24
49	12
50	0
51	17
52	27
53	123
54	51
55	61
56	16
57	60
58	11
59	8
60	11
61	10
65	5
66	14
67	38
68	33
69	94
70	45
71	143
73	331
74	1
75	14
77	2
78	5
79	9
80	11
81	56
82	12
83	5
84	10
85	31
86	10
87	14
91	9
92	4
93	9
94	17
95	15
96	11
97	28
98	58
99	194
100	8
104	15
105	8
106	16
107	6
111	8
113	7
115	1
116	25
117	999
118	55
119	5
120	44
121	6
122	28
130	1
131	6
132	3
133	9
135	5
145	5
146	5
147	54
148	8
149	55
150	8
158	1
159	5
160	7
162	5
173	7
174	28
175	7
176	29
186	4
188	8
190	61
191	37
192	50
193	37
194	0
214	9
216	10
217	9
218	6
219	7
220	5
259	1
265	0
306	16
307	2
308	13
309	2
