Mass Spectrum: Folic Acid
Formula: C19H19N7O6
CAS: 59-30-3
Molecular weight: 441
m/z	intensity
12	12
13	7
14	12
15	29
16	53
17	52
18	221
19	6
25	9
26	94
27	233
28	545
29	117
30	37
31	93
32	61
33	13
34	28
35	20
36	182
37	44
38	78
39	268
40	98
41	470
42	188
43	269
44	999
45	56
46	31
47	13
48	7
49	11
50	54
51	89
52	95
53	106
54	156
55	254
56	180
57	198
58	18
59	26
60	82
61	47
62	52
63	104
64	83
65	263
66	265
67	118
68	75
69	135
70	94
71	105
72	27
73	73
74	36
75	29
76	43
77	79
78	59
79	63
80	86
81	88
82	79
83	142
84	994
85	80
86	23
87	24
88	28
89	31
90	48
91	156
92	254
93	684
94	83
95	84
96	52
97	82
98	90
99	33
100	32
101	35
102	24
103	36
104	30
105	61
106	63
107	120
108	69
109	63
110	37
111	48
112	34
113	28
114	25
115	35
116	24
117	43
118	124
119	123
120	375
121	65
122	58
123	38
124	24
125	30
126	37
127	125
128	259
129	56
130	34
131	32
132	28
133	41
134	52
135	50
136	74
137	305
138	37
139	30
140	16
141	28
142	18
143	22
144	26
145	26
146	29
147	27
148	20
149	36
150	86
151	38
152	30
153	19
154	19
155	13
156	12
157	17
158	27
159	37
160	17
161	25
162	23
163	34
164	18
165	27
166	22
167	49
168	42
169	56
170	16
171	17
172	15
173	12
174	16
175	26
176	33
177	443
178	122
179	36
180	28
181	18
182	22
183	16
184	23
185	20
186	28
187	16
188	13
189	21
190	22
191	23
192	25
193	20
194	35
195	24
196	18
197	16
198	16
199	14
200	25
201	21
202	80
203	49
204	37
205	22
206	28
207	29
208	21
209	16
210	17
211	29
212	19
213	17
214	11
215	17
216	17
217	20
218	20
219	17
220	17
221	20
222	15
223	14
224	14
225	13
226	10
227	9
228	16
229	13
230	10
231	13
232	10
233	9
234	13
235	10
236	16
237	9
238	13
239	10
240	10
241	12
242	11
243	12
244	7
245	65
246	16
247	10
248	12
249	8
250	10
251	9
252	9
253	12
254	8
255	8
256	14
257	9
258	6
259	7
260	9
261	6
262	13
263	96
264	13
265	8
266	10
267	9
268	7
269	7
270	8
271	6
272	6
273	9
274	7
275	5
276	8
277	7
278	16
279	10
280	9
281	10
282	9
283	9
284	9
285	7
286	5
287	8
289	5
290	9
292	6
293	8
294	9
295	11
296	6
297	9
299	6
301	5
302	7
303	5
305	7
306	8
308	8
310	9
311	5
313	6
314	7
316	6
320	8
327	5
328	8
331	7
332	6
333	5
347	5
351	5
353	9
354	11
355	10
356	5
362	5
364	14
368	9
369	5
371	7
