Mass Spectrum: 4-Chloromercuribenzoic acid
Formula: C7H5ClHgO2
CAS: 59-85-8
Molecular weight: 358
m/z	intensity
15	2
16	1
17	1
18	3
25	1
26	4
27	10
28	26
29	3
35	19
36	173
37	16
38	56
39	63
40	3
41	3
42	1
43	8
44	38
45	13
48	1
49	12
50	170
51	92
52	7
53	14
54	1
55	3
57	2
58	2
60	1
61	5
62	4
63	9
64	6
65	244
66	13
67	1
69	1
71	1
72	1
73	16
74	75
75	119
76	203
77	67
78	11
79	1
81	1
83	1
84	1
85	6
87	2
91	6
92	4
93	20
94	3
97	1
99	4
100	5
101	7
102	2
103	18
104	999
105	128
106	8
110	2
111	63
112	6
113	19
114	2
120	1
121	63
122	56
123	4
139	14
140	1
141	5
152	1
156	5
158	1
198	18
199	33
200	45
201	25
202	56
204	13
233	1
234	2
235	3
236	2
237	4
239	2
268	1
269	2
270	3
271	3
272	5
274	3
276	1
309	2
310	4
311	6
312	5
313	9
314	3
315	3
316	1
319	1
320	2
321	3
322	2
323	3
325	1
337	1
338	2
339	3
340	3
341	5
343	2
354	33
355	57
356	91
357	66
358	124
359	23
360	54
361	5
362	7
