Mass Spectrum: 5-Nitro-2-furonitrile
Formula: C5H2N2O3
CAS: 59-82-5
Molecular weight: 138
m/z	intensity
12	5
13	4
16	4
18	1
24	8
25	26
26	79
27	26
29	19
30	745
31	3
32	7
36	56
37	704
38	232
39	23
40	6
41	107
42	12
43	2
44	10
46	51
48	8
49	25
50	33
51	103
52	169
53	53
54	759
55	22
56	2
62	71
63	257
64	999
65	50
66	27
67	17
68	13
69	2
70	2
74	2
75	2
76	2
77	11
78	34
79	4
80	313
81	16
82	2
91	10
92	1
93	4
94	8
96	6
97	1
106	17
108	657
109	38
110	3
122	53
123	3
138	765
139	49
140	6
