Mass Spectrum: Neostigmine
Formula: C11H16N2O2
CAS: 59-99-4
Molecular weight: 208
m/z	intensity
14	2
15	66
17	6
18	43
27	4
28	14
29	1
30	1
32	1
38	2
39	8
40	1
41	5
42	29
43	6
44	12
45	1
47	1
50	2
51	3
52	4
53	2
55	1
56	6
57	1
58	3
59	1
62	1
63	6
64	5
65	14
66	8
67	6
68	1
72	999
73	36
74	3
76	1
77	8
78	5
90	1
91	4
92	9
103	2
104	7
105	4
106	2
107	5
108	22
109	3
118	2
119	2
120	9
121	3
122	3
134	3
135	14
136	18
137	9
138	1
149	1
150	21
151	9
163	2
164	6
165	1
191	1
207	13
208	404
209	51
210	4
