Mass Spectrum: 2-Butene, (Z)-
Formula: C4H8
CAS: 590-18-1
Molecular weight: 56
m/z	intensity
12	1
13	1
14	2
15	11
16	1
24	1
25	5
26	67
27	219
28	247
29	136
30	6
36	1
37	16
38	33
39	314
40	58
41	999
42	34
43	1
48	2
49	14
50	58
51	57
52	19
53	83
54	40
55	259
56	571
57	25
58	1
