Mass Spectrum: Cyclohexanespiro-4'-(5'-methylene-2'-benzylimino-1',3'-thiazolidine)
Formula: C16H20N2S
CAS: 59000-05-4
Molecular weight: 272
m/z	intensity
39	129
40	22
41	137
42	24
43	27
44	159
50	29
51	79
52	36
53	69
54	34
55	93
56	29
57	19
58	58
59	49
60	19
63	29
64	14
65	159
66	39
67	69
69	29
71	29
74	9
76	14
77	97
78	39
79	90
80	24
81	69
82	14
83	14
84	19
85	29
89	29
90	14
91	999
92	99
93	24
97	49
98	15
99	19
100	14
103	14
104	11
105	39
106	114
107	59
108	9
110	88
111	19
112	14
114	11
118	9
122	12
123	11
125	9
126	9
127	19
131	9
138	14
139	19
140	9
153	9
154	29
167	7
168	14
181	93
182	14
183	19
195	16
204	26
216	32
217	93
218	29
229	223
230	49
231	19
232	9
243	29
244	75
257	14
271	29
272	406
273	84
274	34
