Mass Spectrum: 3,4,4-Trimethyl-5-methylene-2-benzoylimino-1,3-thiazolidine
Formula: C14H16N2OS
CAS: 59000-10-1
Molecular weight: 260
m/z	intensity
39	79
40	19
41	104
42	55
43	12
45	32
46	7
47	9
50	65
51	258
52	22
53	29
54	19
55	39
56	224
57	34
58	34
59	38
63	9
65	24
66	19
67	44
68	9
69	14
71	9
72	9
74	19
75	14
76	41
77	617
78	49
81	22
82	11
83	61
84	14
85	82
86	14
97	29
99	14
100	29
105	999
106	79
114	32
117	31
127	12
128	9
140	14
155	14
161	9
183	136
184	14
185	9
231	22
232	19
245	249
246	39
247	19
260	272
261	34
262	17
