Mass Spectrum: 1R,3-cis-Diethoxy-2-cis-methylcyclohexane
Formula: C11H22O2
CAS: 59013-98-8
Molecular weight: 186
m/z	intensity
39	80
41	450
43	380
44	270
45	140
47	120
53	80
55	310
56	50
57	770
58	180
59	130
67	140
68	470
69	130
70	40
71	50
72	999
73	170
75	120
81	60
83	170
84	40
85	760
86	200
87	50
94	490
95	210
96	180
97	70
103	130
111	290
112	80
113	20
125	80
129	40
140	330
141	41
142	48
143	71
157	110
186	3
