Mass Spectrum: 1R-Ethoxy-3-cis-methoxy-2-cis-methylcyclohexane
Formula: C10H20O2
CAS: 59014-00-5
Molecular weight: 172
m/z	intensity
39	220
41	740
42	90
43	360
44	160
45	310
53	100
55	360
56	60
57	580
58	980
59	240
61	360
67	170
68	999
69	170
71	560
72	670
73	180
77	40
79	60
81	60
83	160
84	50
85	720
86	260
87	70
89	210
93	30
94	870
95	280
96	140
97	250
98	80
99	100
100	30
101	40
111	320
112	60
113	20
115	100
125	80
126	220
127	35
128	14
129	120
140	300
141	35
142	8
143	120
144	10
157	5
172	10
