Mass Spectrum: 1R-Ethoxy-3-cis-methoxy-5-cis-methylcyclohexane
Formula: C10H20O2
CAS: 59013-94-4
Molecular weight: 172
m/z	intensity
39	220
41	650
42	160
43	440
45	390
53	110
54	40
55	230
56	30
57	140
58	999
59	300
61	100
65	40
67	140
68	190
69	170
70	80
71	610
72	950
73	150
75	10
77	40
79	50
81	200
83	40
84	210
85	450
86	70
87	170
88	10
89	60
91	20
93	40
94	210
95	430
96	700
97	140
98	100
99	430
100	50
101	20
111	230
112	120
113	50
114	10
115	550
116	60
125	200
126	190
127	26
128	28
129	10
139	20
140	430
141	60
142	35
143	20
172	2
