Mass Spectrum: .alpha.-Multistriatin
Formula: C10H18O2
CAS: 59014-03-8
Molecular weight: 170
m/z	intensity
27	110
29	280
39	90
41	130
43	60
55	210
57	999
71	130
72	40
81	100
86	50
96	150
99	30
128	90
140	40
170	40
