Mass Spectrum: 1R-Ethoxy-3-cis-methoxy-5-trans-methylcyclohexane
Formula: C10H20O2
CAS: 59013-93-3
Molecular weight: 172
m/z	intensity
39	150
41	510
42	80
43	320
45	250
53	70
54	50
55	210
56	30
57	100
58	770
59	250
61	90
65	20
67	140
68	150
69	130
70	50
71	330
72	680
73	90
77	40
79	70
81	330
83	40
84	90
85	350
86	70
87	150
89	50
91	20
93	30
94	160
95	370
96	999
97	180
98	70
99	290
100	30
101	20
111	190
112	100
113	30
114	10
115	430
116	40
122	120
125	170
126	100
127	12
128	39
129	10
139	30
140	120
141	17
142	31
143	10
157	6
172	3
