Mass Spectrum: 1R,3-cis-Dimethoxy-2-cis-methylcyclohexane
Formula: C9H18O2
CAS: 59013-96-6
Molecular weight: 158
m/z	intensity
39	160
41	500
42	100
43	300
44	70
45	340
47	30
53	80
54	20
55	210
56	50
57	110
58	999
59	240
61	10
65	20
67	130
68	970
69	120
70	20
71	830
72	410
73	90
75	380
77	30
79	60
81	30
83	20
84	40
85	70
86	90
87	40
88	20
91	20
93	30
94	770
95	160
96	50
97	320
98	70
99	60
100	20
101	190
103	10
111	90
112	10
115	90
116	10
125	40
126	480
127	50
128	38
129	20
143	10
158	40
