Mass Spectrum: 1R-Ethoxy-3-trans-methoxy-2-trans-methylcyclohexane
Formula: C10H20O2
CAS: 59013-99-9
Molecular weight: 172
m/z	intensity
39	210
41	680
42	80
43	340
44	140
45	270
53	120
55	340
57	530
58	990
59	240
61	350
67	180
68	999
69	170
71	580
72	580
73	190
77	40
79	80
81	70
83	160
84	40
85	510
86	220
87	70
89	200
93	30
94	810
95	250
96	240
97	260
98	60
99	80
100	20
101	40
111	270
112	70
113	20
115	90
125	140
126	190
127	31
128	10
129	100
140	280
141	32
142	14
143	70
144	10
157	10
172	20
