Mass Spectrum: o-Nitrobenzaldehyde acetylhydrazone
Formula: C9H9N3O3
CAS: 59019-15-7
Molecular weight: 207
m/z	intensity
41	22
43	999
44	27
45	4
49	11
50	55
51	106
52	62
53	17
55	5
59	102
60	3
61	3
62	29
63	85
64	69
65	151
66	13
74	15
75	23
76	57
77	79
78	38
79	49
80	26
81	2
83	2
84	6
85	2
86	10
87	2
89	28
90	27
91	74
92	68
93	3
102	13
103	11
105	58
106	7
108	16
117	2
118	3
119	16
120	33
121	2
132	3
134	3
135	34
136	6
137	10
148	2
149	78
150	3
161	12
190	3
191	2
206	3
207	7
