Mass Spectrum: (-)-O-Acetylmalic anhydride
Formula: C6H6O5
CAS: 59025-03-5
Molecular weight: 158
m/z	intensity
14	6
15	35
16	2
18	1
25	1
26	9
27	24
28	18
29	16
30	1
31	3
41	4
42	45
43	999
44	62
45	73
46	2
47	4
53	3
54	4
55	30
56	2
60	32
61	33
69	2
71	266
72	14
73	6
74	1
81	1
86	20
87	3
88	12
89	60
90	3
98	2
99	13
100	2
102	2
104	7
105	1
116	9
117	5
120	4
130	1
131	145
132	8
159	3
