Mass Spectrum: 24Xi-methylcholestane-3.beta.,5.alpha.,6.beta.-triol-3.beta.,6.beta.-diacetate
Formula: C32H54O5
CAS: 59048-83-8
Molecular weight: 518
m/z	intensity
43	999
55	650
57	480
69	630
81	600
83	140
93	380
99	550
107	350
109	380
123	550
149	310
157	220
211	340
226	330
253	370
271	140
276	170
365	170
366	290
380	60
381	180
384	140
398	370
399	110
440	140
458	40
476	20
500	10
518	10
