Mass Spectrum: Tricyclo[3.2.1.0(2,4)]oct-6-ene, 3-(2-methyl-1-propenylidene)-
Formula: C12H14
CAS: 59055-14-0
Molecular weight: 158
m/z	intensity
27	270
28	80
29	210
39	210
41	410
42	560
43	999
51	60
55	60
56	80
57	200
71	70
72	70
77	70
79	80
80	70
91	80
115	90
128	160
143	110
158	70
159	10
