Mass Spectrum: Benzenesulfonic acid, 2-nitro-, hydrazide
Formula: C6H7N3O4S
CAS: 5906-99-0
Molecular weight: 217
m/z	intensity
30	420
31	970
36	120
39	340
49	790
50	840
51	810
52	660
63	240
64	200
65	610
74	190
75	190
76	710
77	999
78	450
79	130
92	110
93	260
94	170
122	4
123	310
124	810
138	5
139	3
153	20
170	40
186	30
187	130
188	10
217	1
