Mass Spectrum: 2,4,5-Tri-O-acetyl-3,6-di-O-methyl-D-mannonitrile
Formula: C14H21NO8
CAS: 59061-10-8
Molecular weight: 331
m/z	intensity
44	28
45	833
51	22
52	52
53	18
54	22
55	35
58	24
59	21
60	19
71	53
73	16
74	68
75	107
78	15
79	81
81	29
83	216
84	195
85	152
86	13
87	999
88	53
98	92
99	317
100	56
101	41
103	26
105	32
110	18
112	21
113	462
114	44
115	107
116	12
117	155
122	16
124	21
126	26
127	18
129	790
130	68
131	365
132	22
137	27
138	16
139	13
141	26
142	300
143	14
144	13
147	125
152	40
154	20
155	23
157	21
159	26
169	50
170	18
173	45
184	125
189	73
212	39
227	12
233	155
234	19
