Mass Spectrum: 4,5-Di-O-acetyl-2,3,6-tri-O-methyl-D-mannonitrile
Formula: C13H21NO7
CAS: 59061-05-1
Molecular weight: 303
m/z	intensity
33	0
34	0
35	0
36	0
37	0
38	2
39	15
40	6
41	39
42	45
43	999
44	68
45	420
46	11
47	4
48	0
49	0
50	1
51	2
52	5
53	34
54	16
55	52
56	38
57	23
58	13
59	42
60	16
61	4
62	0
63	1
64	1
65	2
66	4
67	3
68	10
69	16
70	32
71	94
72	10
73	24
74	51
75	74
76	3
77	2
78	2
79	2
80	3
81	30
82	8
83	62
84	66
85	114
86	12
87	483
88	147
89	31
90	2
91	1
92	2
93	1
94	2
95	2
96	10
97	4
98	106
99	352
100	33
101	45
102	6
103	17
104	3
105	7
106	2
107	1
108	2
109	3
110	6
111	5
112	17
113	442
114	127
115	82
116	11
117	102
118	7
119	3
120	1
121	1
122	3
123	2
124	12
125	1
126	11
127	26
128	24
129	331
130	43
131	180
132	11
133	1
134	0
135	1
136	2
137	1
138	13
139	6
140	4
141	13
142	5
143	6
144	1
145	2
146	1
147	66
148	5
149	5
150	0
151	2
152	10
153	6
154	25
155	11
156	22
157	14
158	3
159	33
160	1
161	9
162	0
163	0
164	0
165	0
166	0
167	4
168	3
169	18
170	9
171	4
172	10
173	76
174	12
175	3
176	0
177	0
178	0
179	0
180	1
181	0
182	1
183	2
184	7
185	1
186	13
187	2
188	1
189	46
190	4
191	4
192	0
193	0
194	0
195	0
196	1
197	2
198	6
199	1
200	1
201	2
202	1
203	0
204	0
205	0
206	0
207	0
208	0
209	0
210	4
211	2
212	8
213	1
214	3
215	13
216	11
217	2
218	1
219	0
220	0
221	0
222	0
224	0
225	0
226	0
227	0
228	0
229	0
230	1
231	3
232	15
233	189
234	3
235	1
236	0
237	0
238	0
239	0
240	0
241	0
242	1
243	2
244	18
245	2
246	0
247	0
248	0
256	0
257	3
258	2
259	0
260	0
261	0
262	0
263	0
268	0
271	1
272	0
273	0
276	1
277	3
278	0
281	0
282	0
288	0
292	0
294	0
298	0
302	0
303	0
304	2
305	0
306	0
