Mass Spectrum: 4,5,6-Tri-O-acetyl-2,3-di-O-methyl-D-mannonitrile
Formula: C14H21NO8
CAS: 59061-07-3
Molecular weight: 331
m/z	intensity
30	3
31	8
32	6
33	2
37	0
38	1
39	3
40	3
41	11
42	21
43	999
44	33
45	37
46	0
47	0
49	0
50	0
51	1
52	1
53	2
54	3
55	6
56	11
57	5
58	2
59	4
60	3
61	5
62	0
65	0
66	1
67	0
68	3
69	8
70	5
71	16
72	2
73	6
74	18
75	7
76	1
77	1
78	0
79	0
80	1
81	1
82	3
83	31
84	22
85	121
86	9
87	44
88	46
89	8
90	0
93	0
94	0
95	1
96	1
97	2
98	1
99	118
100	11
101	5
102	1
103	23
104	0
105	0
106	1
107	0
108	0
109	1
110	1
111	3
112	3
113	23
114	34
115	69
116	12
117	24
118	1
120	0
124	1
125	0
126	5
127	128
128	9
129	11
130	1
133	1
134	0
137	1
138	4
139	0
140	0
141	13
142	2
143	2
144	2
145	7
146	1
147	0
150	0
152	0
154	2
155	2
156	8
157	5
158	4
159	28
160	2
161	0
166	0
168	0
169	2
170	0
171	0
172	0
174	2
175	5
176	0
177	0
182	0
184	0
186	2
187	14
188	2
189	1
197	2
198	0
200	0
201	20
202	2
203	0
215	3
216	1
217	8
218	1
220	0
228	1
231	0
258	0
260	1
261	20
262	0
263	0
271	1
272	0
273	0
300	0
