Mass Spectrum: Benzaldehyde, 4-(4-chlorophenylmethyloxy)-
Formula: C14H11ClO2
CAS: 59067-46-8
Molecular weight: 246
m/z	intensity
33	0
34	0
35	2
36	7
37	9
38	36
39	125
40	16
41	4
42	2
43	2
44	9
45	1
47	0
48	0
49	4
50	34
51	51
52	7
53	4
54	0
55	2
56	0
57	1
60	1
61	7
62	30
63	105
64	41
65	86
66	8
67	0
68	0
69	0
70	0
71	0
72	1
73	18
74	11
75	22
76	14
77	20
78	3
79	1
80	2
81	0
82	0
83	0
84	0
85	2
86	3
87	4
89	144
90	53
91	11
92	19
93	12
94	1
95	0
97	2
99	45
101	16
102	1
103	0
104	1
105	2
106	0
107	1
108	1
109	1
110	0
111	4
112	0
113	1
114	0
115	0
116	0
117	0
118	0
119	0
120	3
121	6
122	4
125	999
126	79
127	294
128	24
129	1
135	0
137	0
138	6
139	2
140	0
141	0
142	0
148	0
149	0
150	0
151	1
152	4
153	2
154	1
155	0
165	0
171	0
181	1
182	0
189	0
209	0
211	0
215	0
217	0
246	28
247	4
248	9
249	1
