Mass Spectrum: 3-Bromo-1,1-diethoxypropane
Formula: C7H15BrO2
CAS: 59067-07-1
Molecular weight: 210
m/z	intensity
25	11
26	86
27	277
28	165
29	439
30	15
31	178
34	0
36	2
37	4
38	6
39	32
40	8
41	31
42	11
43	50
44	26
45	115
46	23
47	447
48	5
49	2
50	5
51	8
52	2
53	4
54	2
55	35
56	34
57	199
58	26
59	30
60	1
61	1
62	1
63	1
64	1
65	1
66	1
67	7
68	2
69	5
70	3
71	6
72	3
73	10
74	4
75	230
76	7
77	19
78	4
79	2
80	5
81	3
82	5
83	2
84	1
85	47
86	11
87	14
88	0
89	0
90	0
91	3
92	1
93	3
94	0
95	2
96	0
97	1
98	0
99	0
100	0
101	3
102	0
103	999
104	25
105	16
106	14
107	14
108	13
109	19
110	11
111	4
112	0
113	3
114	0
115	1
116	0
118	0
120	0
128	0
129	1
130	1
131	3
135	5
136	0
137	199
138	6
139	192
140	6
141	2
142	0
143	0
147	0
149	0
153	4
154	0
155	4
164	0
165	158
166	8
167	155
168	7
169	0
181	1
183	1
209	1
211	1
