Mass Spectrum: Spiro[1,3-dioxolane-2,2'(4'aH)-naphthalene]-4'a-methanol, 1',3',4',5',6',7'-hexahydro-
Formula: C13H20O3
CAS: 59076-87-8
Molecular weight: 224
m/z	intensity
26	3
27	43
29	60
30	17
31	47
33	6
38	2
39	54
40	13
41	101
42	66
43	83
44	21
45	67
46	2
50	5
51	24
52	18
53	56
54	11
55	125
56	22
57	25
58	8
59	7
60	10
61	12
62	3
63	9
64	7
65	49
66	19
67	70
68	12
69	19
70	7
71	12
72	7
73	49
74	6
75	7
76	3
77	97
78	37
79	66
80	23
81	34
82	11
83	16
84	7
85	7
86	80
87	35
88	3
89	22
90	5
91	106
92	53
93	88
94	19
95	26
96	9
97	12
98	6
99	999
100	93
101	22
102	11
103	21
104	29
105	81
106	38
107	85
108	56
109	17
110	5
111	9
112	5
113	4
114	2
115	21
116	15
117	28
118	12
119	46
120	36
121	95
122	31
123	9
124	5
125	11
126	4
127	6
128	9
129	13
130	6
131	73
132	56
133	70
134	49
135	27
136	28
137	7
138	13
139	5
140	3
141	4
143	3
144	4
145	6
146	3
147	13
148	7
149	112
150	42
151	20
152	11
153	5
154	2
155	2
161	5
162	15
163	24
164	19
165	13
166	20
167	5
168	3
169	2
175	3
177	4
178	5
179	15
180	10
181	2
191	3
192	11
193	73
194	144
195	20
196	12
197	2
222	2
224	124
225	18
226	3
