Mass Spectrum: Ethyl cis-2,3-dimethyl-3-phenyloxirane-2-carboxylate
Formula: C13H16O3
CAS: 59070-00-7
Molecular weight: 220
m/z	intensity
43	880
51	130
77	390
78	470
91	200
103	660
104	999
105	230
119	150
121	610
131	90
132	80
146	920
147	390
149	120
173	30
174	70
178	50
219	40
220	20
