Mass Spectrum: 1-Acetyl-4-[4-chlorobenzoyl]piperidine
Formula: C14H16ClNO2
CAS: 59084-15-0
Molecular weight: 265
m/z	intensity
41	35
42	101
43	371
44	42
45	5
47	10
49	37
50	25
51	28
53	19
56	999
57	192
58	10
60	3
61	2
63	6
64	1
65	7
67	15
68	18
69	13
70	4
71	5
72	6
73	4
74	7
75	109
76	24
77	12
78	4
79	0
80	9
82	54
84	123
86	205
87	29
88	1
89	3
91	5
92	2
93	0
94	0
95	1
96	1
98	42
99	48
100	4
101	4
102	2
103	5
104	6
105	1
106	3
107	2
109	1
111	201
112	5
113	54
114	3
115	8
116	3
117	3
119	1
123	1
124	2
125	9
126	29
127	14
128	7
129	3
130	2
131	6
132	4
133	1
136	1
137	2
139	194
141	60
142	4
143	0
145	316
146	37
147	3
149	7
150	0
151	3
152	0
153	1
154	3
155	1
156	2
157	0
158	1
159	1
161	0
162	0
163	3
164	0
165	6
167	52
169	21
170	1
171	1
172	0
173	0
175	1
177	1
178	5
179	15
180	153
181	36
182	86
183	8
184	0
185	0
186	0
187	0
188	4
190	2
191	0
192	0
193	5
194	2
195	2
196	1
197	0
202	0
204	4
206	45
207	7
208	20
209	3
210	0
218	0
220	0
221	14
222	89
223	15
224	27
225	3
226	0
236	2
237	7
238	1
239	2
247	15
248	2
249	4
250	3
252	0
253	0
256	0
262	0
265	110
266	18
267	33
268	6
