Mass Spectrum: 2,2',5-Tribromobiphenyl
Formula: C12H7Br3
CAS: 59080-34-1
Molecular weight: 388
m/z	intensity
47	0
49	32
50	295
51	229
52	7
53	0
55	1
56	0
57	0
60	0
61	115
62	262
63	147
64	3
69	0
73	53
74	463
75	999
77	68
78	1
79	7
80	2
81	7
82	2
84	4
85	50
86	136
87	104
88	9
89	1
93	0
95	0
97	13
98	208
99	174
100	59
101	85
102	16
103	6
104	2
105	0
106	2
107	0
108	0
109	10
110	50
111	69
112	9
113	11
114	0
115	277
116	276
117	5
118	0
119	6
120	1
121	4
122	57
123	47
124	52
125	125
126	14
128	2
129	0
130	3
131	0
135	0
141	1
142	0
143	1
146	2
147	0
148	0
149	69
150	835
151	812
152	88
153	3
154	63
155	121
156	55
179	1
180	5
181	1
182	4
186	0
191	0
193	0
194	0
195	3
196	3
197	0
203	0
204	4
205	0
206	3
229	0
230	887
231	109
232	854
233	92
234	1
308	0
309	353
310	41
311	704
312	81
313	339
314	28
388	91
389	4
390	302
391	24
392	290
393	23
394	83
395	3
