Mass Spectrum: 2,3',5-Tribromobiphenyl
Formula: C12H7Br3
CAS: 59080-35-2
Molecular weight: 388
m/z	intensity
49	26
50	348
51	229
52	5
55	0
56	0
57	0
60	0
61	91
62	238
63	152
64	2
69	0
73	42
74	475
75	999
77	53
78	0
79	9
80	1
81	8
82	1
84	3
85	35
86	117
87	96
88	8
89	0
93	0
97	8
98	185
99	163
100	61
101	83
102	10
103	3
104	2
105	0
106	1
107	0
109	6
110	33
111	56
112	6
113	9
114	0
115	244
116	241
118	0
119	5
120	0
121	2
122	38
123	30
124	34
125	110
126	10
128	1
129	0
130	2
131	0
141	0
142	0
143	0
146	1
148	0
149	55
150	783
151	781
152	81
153	2
154	31
155	65
156	23
157	0
179	1
180	4
181	1
182	3
191	0
194	0
195	7
196	7
197	1
204	3
205	0
206	3
207	0
229	0
230	825
231	94
232	791
233	81
234	0
308	0
310	2
311	0
312	1
388	270
389	19
390	821
391	91
392	797
393	86
394	251
395	15
