Mass Spectrum: Acetic acid, trifluoro-, 3-phenyl-2-[(trifluoroacetyl)amino]propyl ester, (S)-
Formula: C13H11F6NO3
CAS: 59080-42-1
Molecular weight: 343
m/z	intensity
62	270
65	999
69	950
77	410
78	200
89	250
90	200
91	960
92	740
95	30
96	130
102	110
103	390
104	120
105	240
109	310
114	780
116	970
117	970
118	200
131	40
132	300
133	50
137	470
138	50
140	10
141	10
142	40
145	30
152	10
160	30
161	60
162	30
170	10
177	50
187	10
197	50
198	70
200	20
211	20
215	50
229	970
230	270
231	20
