Mass Spectrum: Benzenamine, N-[(4-chlorophenyl)methylene]-, N-oxide
Formula: C13H10ClNO
CAS: 5909-74-0
Molecular weight: 231
m/z	intensity
37	33
38	39
39	141
40	30
41	60
49	27
50	114
51	325
52	63
61	33
62	39
63	129
64	280
65	117
66	33
73	30
74	30
75	102
76	57
77	388
78	66
89	102
90	36
91	999
92	144
93	24
94	78
102	27
104	51
105	30
107	24
111	66
112	24
113	39
114	24
115	21
123	9
125	12
126	12
127	12
128	15
129	9
138	21
139	120
140	39
141	60
142	15
150	12
151	33
152	30
153	9
154	9
165	30
166	27
167	36
168	27
195	9
196	9
202	21
203	21
204	9
205	6
214	60
215	63
216	36
217	30
230	87
231	159
232	60
233	66
234	21
