Mass Spectrum: Lidocaine, TMS derivative
Formula: C17H30N2OSi
CAS: 59096-10-5
Molecular weight: 306
m/z	intensity
15	1
26	1
27	8
28	14
29	29
30	73
31	2
39	4
40	1
41	6
42	33
43	29
44	13
45	53
46	4
47	6
50	1
51	4
52	2
53	3
54	3
55	5
56	38
57	17
58	89
59	13
60	2
61	3
63	2
64	1
65	5
66	1
67	1
68	1
69	1
70	16
71	26
72	44
73	371
74	34
75	47
76	4
77	22
78	8
79	11
80	1
84	19
86	999
87	70
88	2
89	3
90	1
91	10
92	3
93	1
96	1
97	1
100	2
101	1
102	3
103	15
104	5
105	9
106	2
112	2
114	2
115	4
116	24
117	10
118	7
119	6
120	4
121	1
128	2
129	1
130	14
131	11
132	12
133	2
134	2
135	1
138	5
142	3
143	3
144	29
145	42
146	35
147	8
148	4
149	1
156	1
158	3
159	2
160	8
161	3
162	9
163	3
164	1
170	1
171	1
172	2
173	2
174	4
175	1
176	6
177	3
178	3
184	1
186	1
187	1
188	1
189	2
190	2
192	2
201	3
202	2
203	4
204	18
205	4
206	5
207	1
215	1
216	2
217	9
218	7
220	644
221	127
222	35
223	4
232	1
233	1
235	298
236	61
237	16
238	2
247	3
248	1
261	2
262	1
275	2
276	1
277	1
289	2
291	71
292	17
293	4
294	1
303	1
305	3
306	15
307	4
308	1
