Mass Spectrum: 1,2-Pentadiene
Formula: C5H8
CAS: 591-95-7
Molecular weight: 68
m/z	intensity
15	92
25	20
26	135
27	566
28	34
29	113
30	20
31	46
36	15
37	124
38	242
39	822
40	375
41	467
42	195
48	7
49	45
50	198
51	237
52	125
53	820
54	34
60	14
61	55
62	68
63	75
64	7
65	159
66	7
67	999
68	684
69	33
