Mass Spectrum: 1,4-Pentadiene
Formula: C5H8
CAS: 591-93-5
Molecular weight: 68
m/z	intensity
15	27
25	13
26	94
27	266
28	20
29	23
31	23
37	76
38	174
39	791
40	334
41	426
42	167
49	20
50	68
51	93
52	56
53	618
54	27
61	36
62	44
63	54
65	169
67	999
68	665
69	34
