Mass Spectrum: Acetaldehyde semicarbazone
Formula: C3H7N3O
CAS: 591-86-6
Molecular weight: 101
m/z	intensity
12	7
13	8
14	22
15	175
16	112
17	199
18	77
24	3
25	13
26	127
27	190
28	223
29	139
30	246
31	81
32	30
35	1
36	13
38	13
39	25
40	74
41	251
42	256
43	811
44	433
45	11
46	2
52	1
53	4
54	2
55	18
56	89
57	154
58	999
59	31
60	889
61	17
62	2
67	1
68	2
69	33
70	2
71	2
72	1
73	1
74	1
76	2
77	1
81	1
82	1
83	4
84	79
85	9
86	11
87	1
99	11
100	2
101	57
102	4
