Mass Spectrum: Carbamic acid, butyl-, ethyl ester
Formula: C7H15NO2
CAS: 591-62-8
Molecular weight: 145
m/z	intensity
45	77
46	14
47	4
50	1
51	3
52	2
53	9
54	9
55	44
56	106
57	285
58	170
59	36
60	4
61	0
62	68
63	0
64	0
67	0
68	1
69	0
70	9
71	8
72	16
73	6
74	111
75	23
76	2
82	0
84	1
86	1
87	0
88	7
90	53
91	1
98	3
100	68
102	999
103	85
104	7
105	0
114	0
115	0
116	58
117	5
118	4
130	3
144	1
145	95
146	37
147	2
