Mass Spectrum: 1,4-Pentanediamine
Formula: C5H14N2
CAS: 591-77-5
Molecular weight: 102
m/z	intensity
44	121
45	20
52	10
53	12
54	18
55	22
56	152
57	207
58	140
59	765
60	94
65	26
66	8
67	110
68	75
69	73
70	999
71	80
72	4
73	32
77	5
80	5
81	11
82	20
83	20
84	159
85	114
86	45
87	42
