Mass Spectrum: Aziridine, 2,2,3,3-tetramethyl-
Formula: C6H13N
CAS: 5910-14-5
Molecular weight: 99
m/z	intensity
27	25
28	92
29	38
39	66
40	20
41	23
42	999
43	69
44	36
55	17
56	25
57	215
58	443
59	65
60	9
67	29
68	16
69	26
70	49
71	78
72	9
83	105
84	495
85	49
98	99
99	66
100	30
101	2
