Mass Spectrum: 1-Pentadecanol, 15-bromo-
Formula: C15H31BrO
CAS: 59101-27-8
Molecular weight: 306
m/z	intensity
26	2
27	84
28	17
29	161
30	4
31	121
33	0
37	0
38	1
39	72
40	16
41	528
42	116
43	362
44	15
45	12
46	0
47	0
50	1
51	3
52	2
53	44
54	80
55	999
56	283
57	346
58	17
59	3
60	0
61	0
62	0
63	0
65	8
66	9
67	161
68	337
69	977
70	278
71	161
72	8
73	22
74	1
75	2
76	0
77	6
78	1
79	15
80	4
81	129
82	389
83	943
84	189
85	79
86	5
87	3
88	0
89	8
90	0
91	4
92	1
93	3
94	2
95	91
96	110
97	719
98	108
99	20
100	1
101	0
102	0
104	1
105	2
106	0
107	19
108	1
109	65
110	48
111	256
112	57
113	11
114	1
115	0
117	0
118	0
119	1
120	2
121	11
122	3
123	61
124	32
125	132
126	32
127	9
128	1
129	0
130	0
131	0
132	0
133	2
134	13
135	82
136	18
137	73
138	20
139	65
140	14
141	2
143	0
144	0
145	0
147	3
148	229
149	44
150	230
151	36
152	14
153	29
154	8
155	1
157	0
159	0
160	0
161	9
162	142
163	26
164	131
165	18
166	5
167	20
168	3
169	1
170	0
171	0
173	0
174	2
175	19
176	32
177	24
178	28
179	7
180	7
181	5
182	1
183	0
185	0
187	0
188	5
189	15
190	23
191	18
192	21
193	3
194	0
195	0
196	0
197	0
202	4
203	19
204	17
205	20
206	14
207	2
208	7
209	3
210	0
213	0
216	3
217	11
218	16
219	13
220	10
221	3
222	0
223	0
224	0
227	3
228	0
229	0
230	1
231	7
232	10
233	9
234	10
235	1
244	0
245	4
246	6
247	5
248	5
249	0
250	0
252	0
258	0
259	2
260	45
261	9
262	44
263	6
264	0
279	1
280	0
288	37
289	6
290	35
291	7
292	0
305	0
307	0
308	0
309	0
