Mass Spectrum: 8-Azabicyclo[3.2.1]octane-3-carbonitrile, 8-methyl-, endo-
Formula: C9H14N2
CAS: 5911-81-9
Molecular weight: 150
m/z	intensity
15	6
16	120
17	10
18	72
19	10
26	36
27	180
28	200
29	64
30	60
31	2
32	8
37	8
38	24
39	232
40	54
41	240
42	352
43	74
44	40
50	18
51	46
52	56
53	92
54	130
55	240
56	100
57	110
58	8
62	5
63	12
64	17
65	45
66	42
67	94
68	120
69	34
70	66
71	9
74	2
75	3
76	7
77	42
78	17
79	20
80	52
81	52
82	999
83	520
84	34
85	2
89	3
90	2
91	12
92	8
93	26
94	74
95	16
96	420
97	280
98	20
103	2
104	4
105	5
106	6
107	40
108	28
109	7
110	9
111	2
118	2
119	6
121	70
122	92
123	8
124	2
135	4
149	2
150	26
151	4
