Mass Spectrum: 1,3-Dimethyl-5-nitro-6-styryluracil
Formula: C14H13N3O4
CAS: 59119-41-4
Molecular weight: 287
m/z	intensity
41	27
42	227
43	14
44	4
45	1
46	6
47	24
48	14
49	1
50	38
51	1
52	34
53	69
54	27
55	19
56	53
57	23
58	45
59	1
61	2
62	21
63	93
64	35
65	68
66	36
67	999
68	596
69	57
70	80
71	28
72	93
74	26
75	48
76	55
77	390
78	74
79	31
80	29
81	46
82	64
83	79
84	1
86	1
87	21
88	37
89	96
90	55
91	279
92	39
93	7
94	24
95	26
96	477
97	38
98	52
99	16
100	10
101	47
102	141
103	146
104	38
105	263
106	33
107	19
108	8
109	11
110	6
111	26
112	13
113	35
114	55
115	278
116	98
117	33
118	32
119	8
120	4
121	7
123	4
124	178
125	32
126	105
127	122
128	132
129	142
130	31
131	33
132	15
133	4
137	4
138	7
139	6
140	123
141	33
142	30
143	25
144	94
145	23
146	7
152	118
153	167
154	49
155	32
156	217
157	50
158	13
159	4
160	3
166	33
167	5
168	8
169	37
170	12
171	5
172	11
173	10
174	4
181	15
182	12
183	11
184	42
185	29
186	5
194	5
196	1
197	6
198	4
199	6
200	1
201	6
211	1
212	1
213	5
226	4
229	2
230	5
241	193
242	77
243	10
255	1
258	84
259	11
270	48
271	31
272	5
286	16
287	39
288	5
