Mass Spectrum: Benzene, (1-bromo-2-methyl-1-propenyl)-
Formula: C10H11Br
CAS: 5912-93-6
Molecular weight: 210
m/z	intensity
39	190
43	110
50	80
51	180
53	130
58	60
62	60
63	130
64	140
65	180
77	100
89	100
91	999
92	440
104	60
115	300
116	240
128	80
129	160
131	660
132	120
210	260
212	260
