Mass Spectrum: Ethanol, 1-chloro-, acetate
Formula: C4H7ClO2
CAS: 5912-58-3
Molecular weight: 122
m/z	intensity
25	5
26	29
27	140
28	13
29	98
35	8
36	22
38	9
41	23
42	80
43	999
44	116
45	95
49	8
55	9
56	8
57	6
59	7
60	7
61	12
62	74
63	143
64	23
65	59
69	5
71	6
73	5
77	5
79	86
81	30
86	26
87	168
88	9
107	20
109	8
