Mass Spectrum: Benzenesulfonamide, N-(3-hydroxyphenyl)-
Formula: C12H11NO3S
CAS: 59149-19-8
Molecular weight: 249
m/z	intensity
15	3
26	24
27	241
29	17
30	1
37	8
38	52
39	201
40	64
41	31
42	25
43	9
45	12
48	9
50	161
51	627
52	248
53	364
54	38
55	41
62	20
63	59
64	49
65	49
66	26
67	13
68	116
69	19
74	33
75	21
76	34
77	999
78	167
79	65
80	391
81	735
82	49
89	7
90	13
94	14
97	29
106	15
107	17
108	887
109	148
110	13
115	23
116	12
117	14
124	2
125	53
126	7
127	13
128	15
129	26
130	18
131	1
139	4
140	15
141	165
142	16
143	9
144	12
145	13
154	14
155	3
156	39
157	112
158	49
166	23
167	25
168	76
169	11
170	21
183	39
184	446
185	308
186	39
249	498
250	74
251	29
