Mass Spectrum: 4,5-Di-(phenylaminocarbonyl)-imidazole
Formula: C17H14N4O2
CAS: 59157-07-2
Molecular weight: 306
m/z	intensity
50	2
51	33
52	4
53	1
54	1
55	4
56	2
57	13
63	5
64	5
65	55
66	26
67	69
68	29
70	2
71	5
76	1
77	104
78	5
79	1
82	1
83	2
85	2
90	3
91	42
92	17
93	999
94	92
95	57
96	1
97	1
100	2
103	2
104	4
105	2
106	2
107	2
114	1
116	1
120	25
121	33
122	1
129	1
132	1
139	3
141	2
142	8
143	45
144	2
149	1
153	10
157	1
161	3
168	1
170	10
171	1
173	3
181	10
185	3
186	11
187	6
196	89
197	2
212	33
213	18
214	124
215	9
219	4
231	14
232	2
233	6
281	1
304	6
305	79
306	463
307	86
308	2
