Mass Spectrum: 4-Cyclohexene-1,2-dicarboxylic acid, monoamide, N-phenyl-
Formula: C14H15NO3
CAS: 59157-31-2
Molecular weight: 245
m/z	intensity
34	2
37	31
39	399
40	109
41	144
43	43
44	59
45	41
47	26
50	87
51	174
52	86
53	94
54	42
55	44
57	16
60	1
61	6
62	13
63	59
65	236
66	156
67	31
68	5
69	13
70	2
71	4
73	2
74	8
75	8
77	324
79	663
80	277
81	64
82	7
83	5
84	1
91	52
93	999
94	138
95	8
97	35
99	5
104	15
105	14
106	9
107	27
108	7
117	5
119	27
120	32
121	30
122	3
123	10
124	55
125	7
126	0
128	0
130	0
144	0
145	0
153	5
171	0
172	2
198	19
199	12
200	2
201	1
227	62
228	7
245	79
246	9
