Mass Spectrum: 3,7,10-Trimethyl-4,9-dioxo-4,8,9,10-H-as-triazino(4,3-b)triazepine-1,2,4
Formula: C9H11N5O2
CAS: 59166-07-3
Molecular weight: 221
m/z	intensity
40	176
41	999
42	259
43	200
54	69
55	207
56	129
67	336
68	267
81	220
82	59
96	179
97	50
109	109
110	49
138	49
150	188
151	228
179	148
192	59
193	248
221	476
