Mass Spectrum: 2,2'-Bis-trimethylsilylbenzhydryl methyl ether
Formula: C20H30OSi2
CAS: 59164-25-9
Molecular weight: 342
m/z	intensity
43	40
45	147
59	280
61	19
73	999
75	100
89	980
90	98
104	10
105	19
145	71
147	80
163	60
165	161
178	130
179	89
193	120
195	320
196	60
197	20
207	39
208	98
209	269
210	70
211	30
219	50
220	10
221	70
222	139
223	957
224	240
225	59
235	20
236	20
237	40
238	129
239	239
240	68
252	30
253	39
254	10
267	9
269	39
295	59
296	30
297	89
298	20
327	119
328	30
329	10
