Mass Spectrum: Pyridine, 2-(4-nitrobenzylidenamino)-
Formula: C12H9N3O2
CAS: 5918-77-4
Molecular weight: 227
m/z	intensity
34	7
36	11
37	98
38	179
39	347
40	211
41	221
42	32
43	36
44	52
45	8
46	21
47	12
49	28
50	212
51	354
52	314
53	46
54	19
55	13
56	3
57	7
58	1
59	0
60	3
61	11
62	46
63	88
64	49
65	51
66	78
67	399
68	22
69	5
70	2
71	3
72	0
73	4
74	29
75	54
76	87
77	49
78	292
79	999
80	68
81	4
82	3
83	2
84	2
85	4
86	8
87	11
88	10
89	12
90	11
91	10
92	11
93	28
94	278
95	19
96	0
97	1
98	1
99	2
100	4
101	6
102	13
103	12
104	5
105	15
106	2
107	4
108	2
109	1
110	1
111	1
113	2
114	4
115	3
116	1
117	1
118	2
119	3
120	1
121	1
122	0
123	0
124	0
125	3
126	8
127	20
128	8
129	1
130	0
131	0
133	0
135	0
137	0
138	0
140	1
141	1
142	4
143	0
144	0
146	1
147	0
149	0
150	1
151	1
152	5
153	11
154	27
155	3
166	0
167	0
168	6
169	4
170	2
171	1
177	0
179	13
180	21
181	7
182	1
195	0
196	0
197	2
198	0
199	0
200	0
210	1
211	0
219	0
223	0
224	2
226	37
227	18
228	2
