Mass Spectrum: Iodobis(pyrrolidyldithiocarbamato)bismuthine
Formula: C10H16BiIN2S4
CAS: 59196-62-2
Molecular weight: 628
m/z	intensity
44	909
59	160
64	318
70	515
72	333
76	999
114	575
127	33
128	45
147	142
184	36
209	127
241	21
260	15
323	257
336	484
355	106
368	6
418	3
463	18
482	118
501	136
