Mass Spectrum: Iodobis(N,N-di-isobutyldithiocarbamato)arsine
Formula: C18H36AsIN2S4
CAS: 59196-55-3
Molecular weight: 610
m/z	intensity
41	999
44	261
57	653
64	115
73	276
76	100
107	53
115	615
127	13
128	20
139	13
150	76
171	30
172	61
182	10
202	6
204	21
214	10
221	9
257	15
279	9
289	10
300	14
311	28
321	13
376	4
396	20
406	8
428	13
451	1
483	12
