Mass Spectrum: Iodobis(N,N-diethyldithiocarbamato)bismuthine
Formula: C10H20BiIN2S4
CAS: 59196-65-5
Molecular weight: 632
m/z	intensity
44	514
55	285
59	742
64	571
72	542
76	999
87	885
116	742
127	57
128	60
149	285
209	200
241	60
264	17
336	334
357	185
368	5
389	88
418	40
463	65
484	34
505	22
