Mass Spectrum: Octanoyl fluoride
Formula: C8H15FO
CAS: 592-94-9
Molecular weight: 146
m/z	intensity
15	11
26	34
27	384
29	396
30	10
31	2
33	31
37	4
38	20
39	394
40	61
41	999
42	330
43	886
44	32
45	14
46	9
47	224
48	5
49	4
50	12
51	31
52	11
53	72
54	54
55	604
56	257
57	317
58	45
59	44
60	11
61	71
62	141
63	43
64	2
65	11
66	7
67	72
68	43
69	325
70	78
71	38
72	22
73	15
74	14
75	303
76	22
77	5
78	10
79	29
80	24
81	23
82	487
83	138
84	169
85	87
86	106
87	11
88	7
89	69
90	7
91	2
93	41
94	3
95	11
97	70
98	116
99	40
100	19
101	3
103	109
104	12
105	1
107	1
108	15
109	4
111	14
113	5
117	55
118	31
119	1
127	8
128	3
