Mass Spectrum: 3-Hexene
Formula: C6H12
CAS: 592-47-2
Molecular weight: 84
m/z	intensity
26	16
27	167
28	23
29	138
30	2
37	8
38	24
39	278
40	46
41	728
42	600
43	128
44	4
49	3
50	27
51	41
52	15
53	79
54	48
55	999
56	239
57	15
61	1
62	5
63	11
64	1
65	17
66	7
67	48
68	10
69	275
70	16
71	3
74	4
75	2
76	3
77	9
78	3
79	5
81	4
82	1
83	5
84	397
85	27
