Mass Spectrum: 1,6-Diazabicyclo[4.1.0]heptane
Formula: C5H10N2
CAS: 59204-83-0
Molecular weight: 98
m/z	intensity
14	48
15	122
16	6
26	48
27	161
28	267
29	39
30	111
31	6
37	13
38	31
39	175
40	72
41	347
42	999
43	236
44	14
52	13
53	18
54	32
55	58
56	117
57	33
58	6
68	60
69	33
70	107
97	537
98	310
99	22
