Mass Spectrum: Cyclopentane-trans-1,3-dicarboxamide, N,N,N',N'-tetramethyl-
Formula: C11H20N2O2
CAS: 59219-51-1
Molecular weight: 212
m/z	intensity
26	3
27	68
28	43
29	17
30	20
31	9
35	2
36	12
37	1
38	8
39	81
40	33
41	144
42	142
43	41
44	247
45	97
46	223
47	6
50	1
51	5
52	3
53	27
54	7
55	205
56	56
57	11
58	67
59	2
60	0
61	0
62	1
63	4
64	2
65	44
66	34
67	170
68	67
69	40
70	14
71	11
72	999
73	81
74	18
75	0
77	4
78	1
79	4
80	3
81	9
82	12
83	8
84	12
85	11
86	3
87	14
88	1
91	1
92	2
93	5
94	16
95	67
96	35
97	10
98	98
99	11
100	644
101	64
102	3
105	1
106	6
107	1
108	1
109	2
110	16
111	21
112	172
113	407
114	45
115	3
119	0
120	0
121	2
122	3
123	4
124	20
125	4
126	11
127	4
128	0
129	0
131	0
135	0
136	0
137	1
138	32
139	218
140	540
141	146
142	13
143	1
149	1
150	0
151	0
152	1
153	1
154	4
155	1
156	1
157	0
163	0
165	0
166	6
167	23
168	240
169	30
170	3
171	1
174	0
176	0
179	0
181	0
182	0
184	5
185	0
186	1
187	0
191	0
195	3
196	0
197	0
198	0
199	0
200	0
211	1
212	419
213	90
214	9
215	0
