Mass Spectrum: Butane, 1,1-dibutoxy-
Formula: C12H26O2
CAS: 5921-80-2
Molecular weight: 202
m/z	intensity
26	9
27	128
29	369
30	9
31	85
33	5
37	2
38	3
39	62
40	4
41	320
42	39
43	114
44	14
45	16
46	0
47	21
49	0
50	2
51	3
52	1
53	10
54	10
55	240
56	96
57	999
58	38
59	2
60	1
61	0
63	0
64	1
65	1
66	1
67	3
68	1
69	3
70	1
71	20
72	79
73	403
74	22
75	2
78	0
79	1
81	0
83	0
84	0
85	9
86	1
87	0
89	11
90	0
91	2
92	1
93	0
95	0
96	0
97	0
99	1
100	0
101	0
102	0
103	80
104	5
111	0
113	1
115	0
127	0
128	14
129	177
130	15
131	1
141	1
144	0
145	1
159	62
160	5
161	0
201	0
