Mass Spectrum: N-Carbethoxy-2,2-difluoro-3-trifluoromethyl-3-carbomethoxyaziridine
Formula: C8H8F5NO4
CAS: 59223-03-9
Molecular weight: 277
m/z	intensity
29	999
30	23
45	84
46	7
59	382
60	9
81	420
82	23
96	108
97	2
124	86
125	9
145	516
146	12
157	180
158	4
173	816
174	94
175	8
185	218
186	5
204	180
205	74
206	8
218	170
219	4
232	122
233	3
246	94
247	8
