Mass Spectrum: Acetic acid, 2-diacetylamino-1-methyl-1-propenyl ester
Formula: C10H15NO4
CAS: 59222-90-1
Molecular weight: 213
m/z	intensity
33	8
37	8
38	22
40	84
41	91
42	198
43	999
44	269
45	29
46	1
48	12
50	26
51	30
52	16
53	19
54	12
55	43
56	15
57	31
58	30
59	8
60	7
61	2
62	8
63	18
64	13
65	30
66	14
67	10
68	16
69	28
70	25
71	11
72	7
73	1
74	3
75	4
76	4
77	22
78	12
79	10
80	5
81	6
82	6
83	9
84	12
86	236
87	328
88	18
90	21
91	47
92	11
93	10
94	3
97	2
98	2
100	0
103	0
104	3
105	7
106	11
107	9
108	12
109	6
111	136
112	50
113	6
117	1
118	10
119	7
121	5
122	1
126	2
128	12
129	45
130	1
133	0
139	0
140	1
149	10
150	1
152	3
153	1
154	36
155	3
167	0
169	1
171	17
