Mass Spectrum: N-Carbethoxy-2,2-difluoro-3,3-bis(trifluoromethyl)aziridine
Formula: C7H5F8NO2
CAS: 59223-02-8
Molecular weight: 287
m/z	intensity
27	146
28	170
29	999
30	23
43	65
44	5
45	74
46	11
50	26
69	317
70	12
76	29
92	50
126	19
142	53
143	4
195	46
196	5
215	26
242	132
243	5
287	9
