Mass Spectrum: N'-[3-Oxo-1H-indol-2-ylidene]pyridine-4-carbohydrazide
Formula: C14H10N4O2
CAS: 59224-27-0
Molecular weight: 266
m/z	intensity
35	1
36	6
37	70
38	29
39	101
40	53
41	33
42	17
43	39
44	70
45	55
46	2
49	14
50	149
51	470
52	63
53	36
54	9
55	15
56	3
57	13
58	2
59	6
60	9
61	8
62	29
63	61
64	46
65	22
66	8
67	4
68	1
69	8
70	2
71	7
73	11
74	21
75	65
76	185
77	495
78	999
79	586
80	34
81	2
82	1
83	7
84	2
85	1
86	1
87	5
88	8
89	19
90	64
91	23
92	3
93	4
95	1
97	2
99	1
101	3
102	43
103	69
104	420
105	111
106	412
107	624
108	45
109	8
115	2
116	19
117	18
118	15
119	4
120	9
121	4
122	9
123	2
125	13
126	1
127	3
129	3
132	695
133	70
134	39
135	3
137	6
144	10
145	6
146	7
149	5
154	5
160	532
161	51
162	9
167	2
181	12
182	3
209	6
210	18
211	1
237	3
238	127
239	17
266	239
267	39
268	2
