Mass Spectrum: Furan, 2,5-dihydro-2,5-dimethyl-
Formula: C6H10O
CAS: 59242-27-2
Molecular weight: 98
m/z	intensity
36	5
37	35
38	56
39	450
40	51
41	325
42	65
43	980
44	70
45	100
46	7
49	23
50	95
51	125
52	70
53	245
54	150
55	660
56	250
57	52
58	23
59	4
60	3
61	6
62	7
63	12
64	3
65	32
66	7
67	75
68	13
69	60
70	13
71	12
72	5
73	3
74	7
75	3
76	2
77	50
78	18
79	125
80	75
81	80
82	20
83	999
84	55
85	170
86	9
94	5
95	110
96	125
97	85
98	460
99	36
100	25
