Mass Spectrum: Carbamic acid, N-(2,4-dichlorophenyl)-, 2-propynyl ester
Formula: C10H7Cl2NO2
CAS: 5924-91-4
Molecular weight: 243
m/z	intensity
35	20
37	210
38	424
39	999
40	33
42	3
43	4
44	9
45	8
47	8
48	29
50	24
51	25
52	56
53	71
54	20
55	74
56	11
58	0
60	22
61	60
62	106
63	126
64	21
65	7
66	0
71	10
72	36
73	85
74	44
75	30
76	11
78	7
82	3
83	13
84	11
85	12
86	13
87	17
88	38
89	14
90	30
91	1
95	1
97	63
98	39
99	24
100	11
101	8
102	5
107	23
108	5
109	21
110	4
111	4
112	2
113	2
114	1
124	94
125	50
126	33
127	18
128	9
129	2
131	1
133	213
134	9
135	136
136	6
137	21
138	1
145	2
147	1
148	0
153	0
157	0
160	259
161	17
162	166
163	11
164	26
165	1
166	11
167	0
168	0
169	7
170	1
171	4
172	2
173	1
185	0
187	45
188	3
189	29
190	2
191	4
192	0
198	27
200	19
201	1
202	2
205	0
206	0
208	61
209	6
210	19
211	2
212	0
241	0
243	108
244	12
245	70
246	7
247	11
248	1
