Mass Spectrum: 6-Pentyl-4-nor-3,5-secoandrostane-3,5.beta.,17.beta.-triol 3,17-diacetate
Formula: C27H46O5
CAS: 59251-81-9
Molecular weight: 450
m/z	intensity
27	30
28	90
29	90
41	220
43	999
44	30
55	310
57	130
67	210
69	270
70	70
71	100
77	50
79	180
81	330
83	90
85	60
91	150
93	310
94	190
95	330
97	90
105	190
107	260
108	200
109	200
119	140
121	170
122	60
123	70
128	60
131	90
133	290
134	150
135	450
136	90
145	120
147	150
148	150
149	80
159	80
161	110
163	90
165	70
173	50
175	100
176	40
177	40
178	40
187	40
189	70
201	100
203	180
204	330
205	80
217	50
219	30
221	40
222	30
243	100
244	30
261	180
262	100
263	270
264	190
265	30
271	320
272	70
276	20
277	30
278	20
279	20
289	80
290	20
301	50
302	50
303	40
304	30
321	30
330	40
331	90
332	20
333	30
348	70
349	110
350	30
372	180
373	50
390	80
391	20
432	40
450	400
451	120
452	20
