Mass Spectrum: Benzeneethanethioic acid, S-methyl ester
Formula: C9H10OS
CAS: 5925-74-6
Molecular weight: 166
m/z	intensity
65	130
75	40
91	999
119	130
138	10
166	410
