Mass Spectrum: 6-Pentyl-4-nor-3,5-secoandrostane-3,5.beta.,17.beta.-triol
Formula: C23H42O3
CAS: 59251-57-9
Molecular weight: 366
m/z	intensity
27	210
28	130
29	520
30	30
31	240
39	110
41	999
42	120
43	780
44	140
45	70
53	150
54	70
55	950
56	90
57	550
58	80
67	600
68	160
69	570
70	80
71	310
77	170
79	440
80	80
81	670
82	120
83	190
84	80
85	610
86	50
91	320
92	70
93	550
94	150
95	590
96	100
97	210
105	340
107	420
108	140
109	330
110	90
111	100
119	240
120	70
121	280
122	80
123	170
128	90
131	140
133	290
134	120
135	330
145	200
147	250
149	160
151	140
153	120
159	130
161	170
163	150
165	130
166	80
173	110
175	260
177	130
183	100
187	90
189	80
191	110
201	200
203	200
205	80
217	250
218	70
219	130
220	100
221	210
222	260
223	60
243	130
245	120
261	380
262	90
263	50
271	790
272	160
273	40
277	180
278	80
279	80
289	820
290	260
291	50
304	70
305	50
306	30
307	160
308	40
330	110
331	70
348	160
349	40
366	180
367	40
