Mass Spectrum: 6.alpha.-Pentyl-4-oxa-5.beta.-androstane-3,17-dione
Formula: C23H36O3
CAS: 59251-71-7
Molecular weight: 360
m/z	intensity
27	190
28	40
29	400
39	140
41	840
42	230
43	600
53	190
54	90
55	999
56	110
57	280
67	690
68	180
69	390
70	80
71	210
77	220
78	80
79	490
80	100
81	640
82	150
83	240
84	60
85	110
91	430
92	90
93	500
94	120
95	410
96	90
97	340
99	100
105	500
106	130
107	350
108	160
109	240
110	140
111	100
117	90
119	310
120	120
121	240
122	100
123	210
131	180
132	70
133	250
134	80
135	140
136	70
137	130
143	80
144	70
145	170
146	70
147	200
148	70
149	190
150	70
151	80
159	150
161	240
163	100
164	120
165	60
173	200
175	330
176	80
177	110
179	120
187	90
189	170
191	120
192	60
197	140
199	130
201	80
202	60
203	140
205	60
211	90
213	70
215	140
216	60
217	210
218	70
219	80
220	80
221	120
231	400
232	110
233	170
243	310
244	80
245	140
246	60
247	70
259	350
260	80
261	80
269	390
270	100
271	220
272	130
287	840
288	250
289	450
290	260
291	80
303	110
304	120
316	200
317	100
342	160
345	120
360	860
361	230
