Mass Spectrum: N-(4-Nitrocinnamylidene)-o-toluidine
Formula: C16H14N2O2
CAS: 59256-50-7
Molecular weight: 266
m/z	intensity
39	669
40	70
41	88
42	8
43	3
44	5
46	67
50	374
51	364
52	139
53	38
54	9
55	3
57	5
58	5
63	581
65	999
66	43
67	5
70	5
74	124
75	169
76	182
77	265
78	82
79	26
80	3
82	9
84	6
86	32
87	49
89	343
91	997
92	58
93	9
95	17
97	5
98	9
99	9
102	342
103	79
104	19
106	46
107	8
109	23
113	46
114	52
115	94
117	552
118	285
119	30
126	10
127	33
128	62
130	268
131	17
139	12
140	15
141	9
142	16
143	41
144	80
145	9
150	5
151	9
152	18
153	7
154	9
163	5
164	6
165	20
166	9
167	17
168	6
175	9
176	9
177	7
178	17
179	7
180	17
181	5
189	11
190	9
191	17
192	16
193	11
201	3
202	10
203	13
204	59
205	34
206	22
207	9
208	9
215	2
216	12
217	41
218	80
219	168
220	52
221	7
235	5
236	7
238	5
239	2
251	8
265	124
266	141
267	18
268	2
