Mass Spectrum: Oxirane, [(hexyloxy)methyl]-
Formula: C9H18O2
CAS: 5926-90-9
Molecular weight: 158
m/z	intensity
14	1
15	17
19	6
26	16
27	218
28	31
29	510
30	30
31	308
32	3
33	1
37	2
38	7
39	164
40	37
41	565
42	183
43	999
44	99
45	218
46	8
47	7
50	3
51	9
52	4
53	38
54	28
55	791
56	488
57	813
58	465
59	73
60	3
61	3
63	1
65	5
66	2
67	44
68	12
69	133
70	20
71	114
72	13
73	21
74	18
75	52
76	2
77	2
78	1
79	5
80	1
81	15
82	28
83	537
84	92
85	167
86	11
87	60
88	3
89	11
93	2
95	4
96	2
97	6
98	3
99	21
100	3
101	29
102	2
107	1
109	2
111	4
112	3
113	27
114	2
115	3
117	1
125	1
129	2
