Mass Spectrum: 2,4(1H,3H)-Pyrimidinedione, 5-methoxy-1,3-dimethyl-
Formula: C7H10N2O3
CAS: 59264-10-7
Molecular weight: 170
m/z	intensity
25	3
26	12
27	34
28	75
29	26
30	13
31	6
32	1
35	1
36	4
37	0
38	2
39	9
40	28
41	98
42	999
43	38
44	14
45	2
47	0
49	0
50	1
51	4
52	11
53	31
54	20
55	58
56	54
57	18
58	12
59	0
63	0
64	0
65	0
66	4
67	16
68	15
69	11
70	99
71	13
72	17
73	0
74	0
75	0
78	0
79	0
80	3
81	5
82	8
83	75
84	20
85	30
86	3
87	0
94	0
95	6
96	19
97	1
98	4
99	3
100	0
101	0
102	0
107	0
109	0
110	0
111	2
112	21
113	16
114	1
115	0
116	0
117	1
118	0
124	21
125	2
126	2
127	10
128	0
135	0
136	2
137	1
138	0
139	0
140	39
141	73
142	6
143	0
149	0
150	0
152	37
153	8
154	0
155	18
156	1
167	0
168	5
169	82
170	271
171	23
172	2
