Mass Spectrum: Bromomaleic anhydride
Formula: C4HBrO3
CAS: 5926-51-2
Molecular weight: 176
m/z	intensity
12	18
13	22
14	2
15	2
16	6
24	59
25	299
26	31
27	2
28	93
29	17
31	1
32	1
36	23
37	13
39	2
40	12
41	36
42	3
43	6
44	65
45	7
52	60
53	999
54	53
55	5
56	2
57	1
60	2
62	1
65	1
66	25
67	27
68	1
69	3
79	58
80	22
81	57
82	19
83	1
84	1
85	4
88	2
91	18
92	6
93	18
94	8
95	2
96	2
97	2
98	7
103	25
104	496
105	36
106	487
107	12
109	1
115	2
117	1
119	1
120	1
127	1
131	12
132	589
133	32
134	568
135	23
136	2
138	1
140	1
176	72
177	4
178	74
179	4
180	2
