Mass Spectrum: 2H-Pyran-2,6(3H)-dione
Formula: C5H4O3
CAS: 5926-95-4
Molecular weight: 112
m/z	intensity
26	200
27	320
28	649
29	290
39	250
42	70
44	60
45	30
53	80
54	70
55	899
56	290
58	30
66	10
84	609
85	30
112	999
113	80
114	10
