Mass Spectrum: Silane, (chloromethylene)bis[trimethyl-
Formula: C7H19ClSi2
CAS: 5926-35-2
Molecular weight: 194
m/z	intensity
26	5
27	4
28	6
29	15
30	1
31	20
32	1
33	0
35	0
36	2
38	0
39	1
40	0
41	4
42	5
43	73
44	16
45	89
46	5
47	3
50	0
51	0
53	6
54	1
55	15
56	2
57	11
58	21
59	193
60	15
61	6
63	13
64	1
65	19
66	2
67	8
68	1
69	7
70	2
71	15
72	15
73	999
74	84
75	36
76	1
77	0
78	8
79	11
80	4
81	6
82	1
83	6
84	1
85	351
86	52
87	24
88	1
91	1
92	0
93	48
94	3
95	18
96	1
97	1
98	0
99	4
100	0
101	2
103	1
104	0
105	6
106	49
107	7
108	17
109	2
110	0
111	0
113	4
114	0
115	1
119	2
120	0
121	2
122	0
123	0
125	0
127	0
129	13
130	2
131	2
133	1
135	4
136	0
137	4
138	0
139	1
144	0
145	4
146	0
147	2
149	4
150	0
151	10
152	1
153	3
154	0
163	0
165	3
166	0
167	1
177	0
178	0
179	76
180	12
181	30
182	4
183	2
194	16
195	3
196	7
197	1
198	0
