Mass Spectrum: 2-Pyridinecarboxamide, 3-nitro-
Formula: C6H5N3O3
CAS: 59290-92-5
Molecular weight: 167
m/z	intensity
50	260
51	340
52	210
53	110
65	50
66	210
67	50
75	60
76	130
77	110
78	750
79	60
93	40
94	100
120	1
121	30
124	999
125	60
137	20
151	20
167	180
168	14
