Mass Spectrum: Dimethyl selenide
Formula: C2H6Se
CAS: 593-79-3
Molecular weight: 110
m/z	intensity
14	215
15	860
78	154
80	308
82	51
90	137
91	426
92	357
93	831
94	359
95	999
96	70
97	189
106	113
107	159
108	284
110	637
112	108
