Mass Spectrum: 1-Triacontanol
Formula: C30H62O
CAS: 593-50-0
Molecular weight: 438
m/z	intensity
25	0
26	1
27	27
29	120
30	2
31	36
33	0
36	0
37	0
38	0
39	13
40	28
41	316
42	79
43	764
44	24
45	7
46	0
50	1
51	0
52	0
53	9
54	58
55	611
56	283
57	999
58	43
59	1
61	0
64	0
65	1
66	10
67	113
68	245
69	596
70	252
71	497
72	28
73	7
74	0
77	1
78	0
79	6
80	7
81	85
82	400
83	685
84	168
85	294
86	16
87	0
88	0
89	1
90	0
91	1
92	0
93	1
94	5
95	58
96	201
97	677
98	115
99	96
100	5
101	0
103	0
104	0
105	0
107	0
108	1
109	30
110	71
111	348
112	91
113	61
114	5
116	0
117	0
121	0
122	5
123	26
124	56
125	216
126	60
127	38
128	2
129	0
132	1
135	0
136	2
137	15
138	43
139	130
140	46
141	28
142	3
145	0
147	0
149	0
150	0
151	6
152	29
153	84
154	35
155	23
156	1
163	0
164	0
165	2
166	25
167	68
168	31
169	19
170	2
178	0
179	1
180	24
181	50
182	25
183	12
184	2
192	0
193	1
194	21
195	37
196	22
197	10
198	1
199	0
206	0
207	1
208	19
209	30
210	14
211	8
212	1
220	0
221	1
222	16
223	26
224	14
225	7
226	0
235	0
236	15
237	21
238	14
239	6
240	0
241	0
249	0
250	16
251	20
252	11
253	4
254	1
264	11
265	17
266	11
267	4
268	0
277	0
278	13
279	16
280	10
281	3
282	0
291	0
292	10
293	11
294	7
295	3
296	0
297	0
305	0
306	10
307	13
308	7
309	3
310	0
319	0
320	8
321	10
322	9
323	2
324	0
334	8
335	8
336	14
337	4
338	0
348	5
349	8
350	11
351	1
352	1
362	4
363	7
364	5
365	1
366	0
376	2
377	6
378	4
379	1
380	0
390	3
391	5
392	35
393	9
394	1
406	0
418	0
419	0
420	196
421	68
422	10
423	1
436	0
437	1
438	2
439	0
