Mass Spectrum: Methyl fluoride
Formula: CH3F
CAS: 593-53-3
Molecular weight: 34
m/z	intensity
12	5
13	12
14	31
15	116
31	77
32	44
33	888
34	999
35	12
