Mass Spectrum: 1-(2,3-Dimethyltricyclo[2.2.1.02,6]heptan-3-yl)ethanone
Formula: C11H16O
CAS: 59300-51-5
Molecular weight: 164
m/z	intensity
27	48
28	65
29	48
39	95
40	29
41	230
42	40
43	402
44	76
45	14
49	7
50	34
51	61
53	122
54	15
55	129
56	66
60	27
65	79
66	79
67	178
71	14
72	181
73	11
74	9
75	8
77	438
78	83
79	369
80	180
81	43
82	24
85	35
86	12
91	461
93	999
94	153
95	46
96	79
97	13
98	44
101	6
102	12
103	83
104	15
105	297
106	116
109	74
110	15
112	6
117	12
121	752
122	117
130	18
149	35
164	442
165	43
