Mass Spectrum: 3-Nitropyrrole
Formula: C4H4N2O2
CAS: 5930-94-9
Molecular weight: 112
m/z	intensity
25	2
26	12
27	12
28	95
29	37
30	24
36	2
37	27
38	88
39	446
40	23
41	4
46	1
50	1
51	6
52	12
53	10
54	9
55	26
56	11
57	1
62	1
63	3
64	5
65	9
66	116
67	7
68	3
69	1
70	4
80	1
82	71
83	3
84	6
85	1
95	1
96	44
97	2
112	999
113	58
114	5
