Mass Spectrum: trans-2-(2-Hydroxybenzyl)-cyclohexanol
Formula: C13H18O2
CAS: 5932-70-7
Molecular weight: 206
m/z	intensity
79	120
80	201
81	348
91	81
107	999
108	249
120	128
131	70
145	89
159	39
188	299
206	319
