Mass Spectrum: Hexanal, 4,4-dimethyl-
Formula: C8H16O
CAS: 5932-91-2
Molecular weight: 128
m/z	intensity
27	99
28	29
29	148
39	79
41	257
42	19
43	999
44	29
53	39
55	227
56	29
57	79
58	9
68	29
69	217
70	188
71	643
72	39
79	29
81	594
82	39
95	237
96	29
99	148
100	19
110	19
113	19
128	19
