Mass Spectrum: 4-Propyl[1,3]oxathiane 3-oxide
Formula: C7H14O2S
CAS: 59324-13-9
Molecular weight: 162
m/z	intensity
20	0
25	1
26	13
27	150
28	56
29	175
30	11
31	20
32	5
33	3
34	7
35	6
36	1
37	1
38	5
39	129
40	19
41	412
42	111
43	92
44	15
45	66
46	24
47	24
48	7
49	3
50	6
51	10
52	5
53	48
54	30
55	999
56	104
57	23
58	5
59	27
60	15
61	31
62	14
63	74
64	4
65	10
66	3
67	62
68	11
69	60
70	21
71	14
72	5
73	80
74	11
75	7
76	10
77	193
78	8
79	16
80	5
81	24
82	30
83	350
84	26
85	9
86	4
87	43
88	10
89	365
90	33
91	25
92	5
93	1
94	1
95	3
96	1
97	2
98	1
99	4
100	1
101	7
102	2
103	57
104	8
105	20
106	2
107	6
108	1
109	0
111	0
112	0
113	3
114	19
115	16
116	4
117	3
118	0
119	0
120	0
121	0
122	1
123	0
128	0
129	1
130	0
131	2
132	396
133	31
134	19
135	1
139	0
141	0
144	0
145	2
146	24
147	2
148	1
162	20
163	6
164	1
