Mass Spectrum: 3-Fluorocholest-5-ene
Formula: C27H45F
CAS: 59331-45-2
Molecular weight: 388
m/z	intensity
41	380
42	72
43	999
44	30
47	4
53	50
55	287
56	25
57	193
58	9
59	26
61	2
65	15
66	9
67	121
68	23
69	132
70	15
71	108
72	1
73	17
77	49
78	15
79	156
80	25
81	173
82	19
83	49
84	4
85	31
87	2
91	125
92	20
93	100
94	38
95	131
96	15
97	47
98	5
99	18
103	10
104	5
105	116
106	28
107	101
108	31
109	67
110	5
111	33
112	2
113	14
115	19
116	8
117	41
118	13
119	46
120	22
121	40
122	15
123	34
124	7
125	28
126	6
127	44
128	12
129	21
130	11
131	50
132	8
133	59
134	22
135	58
136	11
137	13
138	4
139	20
140	31
141	12
142	9
143	30
144	10
145	52
146	9
147	32
148	12
149	35
150	7
151	21
152	12
153	41
154	4
157	13
158	8
159	23
160	11
161	36
162	10
163	116
164	20
165	45
166	13
167	15
169	5
171	14
173	11
175	9
177	42
178	50
179	44
180	58
181	14
185	9
187	8
189	7
191	19
192	7
193	18
194	9
199	9
201	2
203	2
205	19
206	13
207	10
213	14
215	1
217	7
219	25
220	12
221	10
229	7
231	4
232	3
233	136
234	36
235	10
236	2
245	2
247	27
248	26
249	12
255	8
259	7
260	6
261	11
262	4
273	4
274	21
275	192
276	43
277	1
301	34
302	10
303	6
373	62
374	17
386	2
387	5
388	123
389	34
390	2
