Mass Spectrum: 2-[4-Chlorophenyl]-4-[3-dimethylaminopropyl]amino-6-methoxybenzothiazole
Formula: C19H22ClN3OS
CAS: 59334-01-9
Molecular weight: 375
m/z	intensity
42	249
44	248
45	73
49	7
50	4
51	18
52	11
53	8
54	6
56	43
58	999
59	41
60	1
62	4
63	23
65	11
66	2
68	36
70	192
72	105
75	8
76	6
77	6
78	7
79	5
80	5
82	24
84	37
85	593
86	27
87	3
88	1
89	3
90	3
93	51
95	20
96	14
97	5
99	9
100	0
102	5
104	8
106	8
107	7
109	18
111	12
112	2
113	3
114	2
115	0
116	2
117	1
118	1
119	1
120	6
121	9
122	7
123	7
124	5
125	4
126	0
127	1
129	0
130	2
131	0
132	1
133	3
134	1
135	1
136	10
137	3
138	14
140	7
141	0
142	0
143	0
144	1
145	0
146	1
147	1
148	2
149	2
150	1
151	3
152	4
153	1
155	31
157	15
159	4
160	0
161	0
162	1
163	0
164	1
165	2
166	0
167	0
168	0
169	0
170	0
171	1
173	1
175	0
176	0
177	1
178	0
179	1
180	1
182	0
184	0
185	0
186	0
187	1
188	0
189	0
192	2
193	0
194	0
196	4
197	2
198	1
199	0
200	0
202	0
204	0
205	1
206	0
208	1
209	0
211	4
212	0
213	1
215	1
217	0
219	1
220	0
221	0
222	2
224	2
225	4
226	2
228	1
229	1
230	1
231	1
232	5
233	1
234	2
238	0
239	2
241	5
242	1
243	0
244	4
246	12
247	10
248	5
249	3
250	1
251	1
253	0
255	0
257	2
258	2
259	15
260	13
261	8
262	7
263	2
264	1
266	0
267	0
268	1
269	1
270	0
271	0
273	5
275	47
276	10
277	16
278	3
279	0
282	0
283	0
284	0
285	0
286	4
288	10
290	25
291	5
292	7
293	1
294	0
297	0
299	2
301	10
303	77
304	47
305	27
306	13
307	2
308	0
313	1
314	1
315	9
317	30
318	6
319	11
320	1
321	0
329	7
330	14
331	9
332	6
333	2
334	0
340	0
342	1
343	0
345	1
347	0
360	0
373	1
374	1
375	112
376	22
377	38
378	7
379	1
