Mass Spectrum: 2,2,4-Trimethyl-3-hydroxy-n-valeronitrile
Formula: C8H15NO
CAS: 59346-56-4
Molecular weight: 141
m/z	intensity
14	1
15	24
17	1
18	3
26	12
27	192
28	103
29	141
30	32
31	105
32	1
37	4
38	10
39	154
40	29
41	334
42	207
43	717
44	33
45	108
46	2
50	3
51	10
52	22
53	42
54	164
55	696
56	260
57	330
58	17
59	11
60	2
61	5
63	2
64	4
65	7
66	9
67	14
68	112
69	999
70	434
71	82
72	775
73	947
74	43
75	3
77	3
78	1
79	4
80	4
81	13
82	25
83	22
84	36
85	16
86	2
87	3
91	2
92	1
93	3
94	2
95	2
96	4
97	9
98	148
99	14
100	19
101	2
103	5
108	8
109	2
110	1
111	8
112	1
113	1
114	2
115	4
124	15
125	2
126	2
127	1
140	1
141	1
142	9
143	1
