Mass Spectrum: 5'-Chloro-2'-methoxybenzanilide
Formula: C14H12ClNO2
CAS: 59385-62-5
Molecular weight: 261
m/z	intensity
27	1
28	3
36	1
38	1
39	2
43	1
50	8
51	41
52	4
53	1
57	2
62	1
63	5
64	1
65	2
71	1
73	1
74	2
75	4
76	11
77	292
78	25
79	3
85	1
86	1
90	4
91	2
92	1
93	3
99	6
101	2
104	3
105	999
106	87
107	5
112	1
113	1
114	1
126	3
127	3
128	2
129	2
139	2
140	1
142	16
143	1
144	5
154	1
156	11
157	3
158	9
159	1
160	1
168	1
226	1
229	4
230	29
231	5
232	9
233	1
244	1
245	1
246	1
260	1
261	485
262	77
263	162
264	24
265	2
