Mass Spectrum: Ethane(dithioic) acid
Formula: C2H4S2
CAS: 594-03-6
Molecular weight: 92
m/z	intensity
32	100
33	65
34	85
43	20
44	40
45	120
46	20
47	20
56	30
57	150
58	290
59	999
60	450
61	45
64	30
73	10
76	40
77	30
91	10
92	120
93	10
94	10
