Mass Spectrum: Methane, trichloroiodo-
Formula: CCl3I
CAS: 594-22-9
Molecular weight: 244
m/z	intensity
24	0
25	1
26	5
27	4
29	1
30	0
31	1
34	1
35	136
36	86
37	39
38	25
39	0
40	2
41	0
44	6
45	0
47	284
48	10
49	99
50	6
51	5
52	1
53	1
55	1
58	2
59	0
60	1
61	2
63	5
64	3
65	2
67	2
68	0
70	5
71	1
72	2
73	0
74	0
75	0
76	1
77	4
78	12
79	0
80	0
82	410
83	43
84	258
85	29
86	40
87	3
89	1
93	2
95	2
99	0
100	0
102	2
103	11
104	19
105	2
109	1
113	1
116	2
117	999
118	13
119	933
120	12
121	303
122	4
123	31
126	0
127	546
128	72
137	0
139	58
140	1
145	1
155	0
162	24
164	8
168	1
172	0
174	30
175	1
176	11
187	2
192	0
198	1
200	0
201	1
207	2
208	2
209	232
210	3
211	155
212	1
213	26
