Mass Spectrum: Triphenylantimony dichloride
Formula: C18H15Cl2Sb
CAS: 594-31-0
Molecular weight: 422
m/z	intensity
26	1
27	50
28	4
29	4
34	4
35	8
36	4
37	8
38	39
40	4
42	4
44	4
49	4
50	259
51	845
52	40
55	4
57	4
60	4
61	1
62	11
63	12
69	4
73	8
74	57
75	57
76	57
77	999
78	75
79	3
85	3
86	3
87	3
89	6
98	3
99	3
100	3
101	3
102	11
112	81
113	9
114	27
115	19
121	71
122	3
123	49
125	3
126	15
127	12
128	21
151	5
152	25
153	29
154	291
155	32
156	10
157	3
158	89
159	3
160	19
169	8
170	8
171	8
172	8
173	3
180	3
182	3
187	3
190	10
193	12
195	10
197	335
198	260
199	198
200	10
228	7
229	7
230	7
231	3
233	440
234	35
235	481
236	29
237	9
267	3
268	3
270	8
272	3
273	83
274	17
275	129
276	18
277	51
310	265
311	36
312	281
313	36
314	6
344	28
345	3
346	38
348	3
349	17
350	3
351	3
352	15
353	3
354	7
387	785
388	149
389	881
390	161
391	205
392	38
