Mass Spectrum: Methyl (13E)-6-(methoxyimino)-9,11,15-trihydroxy-prost-13-en-1-oate, 3TMS derivative
Formula: C31H63NO6Si3
CAS: 59403-25-7
Molecular weight: 629
m/z	intensity
26	7
30	11
31	7
38	0
39	1
42	6
43	19
44	0
45	26
46	4
47	5
49	1
50	2
51	8
53	4
54	6
55	76
58	0
59	34
60	2
61	6
62	3
63	1
65	1
66	2
67	14
71	3
72	9
73	999
74	88
75	126
76	8
77	8
78	4
79	21
80	11
81	7
82	13
83	24
86	0
87	35
88	5
89	52
90	8
91	32
92	4
93	15
94	8
95	0
96	1
99	10
100	7
101	14
102	2
103	71
104	10
105	27
106	8
107	6
108	4
110	16
112	1
113	3
114	8
115	117
116	11
117	15
118	9
119	10
120	6
121	2
122	1
126	1
127	4
128	3
129	58
130	16
131	14
132	7
133	59
134	10
138	0
139	0
140	1
141	3
142	9
143	9
144	12
145	8
146	5
147	96
148	19
149	18
150	4
151	7
152	1
153	2
154	3
155	16
156	1
158	5
159	7
160	7
161	5
162	5
163	6
164	2
165	2
166	2
167	19
168	12
169	6
170	5
171	5
172	7
173	88
174	16
175	12
176	6
177	2
178	2
179	21
180	8
181	19
182	9
183	4
184	7
185	3
186	10
187	33
188	14
189	4
190	3
191	76
192	16
193	15
194	25
195	7
196	3
197	1
198	3
199	28
200	12
201	2
202	1
203	4
204	3
205	35
206	15
207	3
208	6
209	1
210	7
211	4
212	8
213	6
214	7
215	8
216	3
217	47
218	14
219	10
220	12
221	1
222	4
223	3
224	9
225	7
226	6
227	2
228	6
229	1
230	2
232	9
233	3
234	3
235	6
236	2
237	14
238	7
239	4
240	6
241	0
242	6
243	18
244	10
245	6
246	7
247	2
248	5
249	1
250	7
251	8
252	6
253	0
254	4
255	9
256	10
257	9
258	7
259	3
260	6
261	7
262	19
263	25
264	9
265	4
266	5
267	0
268	6
269	8
270	11
272	4
273	3
274	4
275	6
276	10
277	23
278	10
279	6
281	6
282	5
283	1
284	7
285	4
286	3
287	4
288	8
289	4
290	7
291	4
292	5
293	5
294	6
295	7
296	10
297	6
298	4
300	19
301	7
302	9
303	5
304	4
307	5
308	10
309	7
310	9
311	5
312	4
313	7
314	7
315	4
316	4
317	4
318	5
320	12
321	7
322	37
323	12
324	8
325	1
328	24
329	3
330	4
333	5
334	6
335	4
336	6
337	5
338	5
339	4
340	5
346	7
347	4
348	4
349	7
350	5
351	8
352	15
353	34
354	13
356	5
359	10
360	8
361	4
362	3
364	4
365	4
366	8
367	7
368	3
371	4
378	95
379	30
380	13
381	4
382	4
383	4
384	3
386	4
389	4
392	18
393	8
394	5
407	3
408	4
410	11
412	26
413	24
414	10
415	1
416	6
418	60
419	24
420	10
421	4
422	4
423	5
424	5
425	5
426	15
427	7
428	5
430	3
436	5
437	3
439	4
440	4
441	6
442	7
443	7
444	3
449	31
450	14
451	5
452	3
456	6
457	3
468	25
469	11
470	6
476	4
482	8
483	4
508	51
509	22
510	11
511	4
524	4
539	9
540	5
558	13
559	6
560	3
598	34
599	20
600	10
601	4
614	8
615	5
629	5
