Mass Spectrum: Dihydrazinyl-1,2,4,5-tetrazine
Formula: C2H6N8
CAS: 5940-53-4
Molecular weight: 142
m/z	intensity
38	15
39	40
40	52
41	265
42	345
43	105
44	13
52	5
53	24
54	65
55	9
56	147
57	999
58	321
59	5
67	11
68	83
69	6
82	7
84	5
95	8
96	10
98	8
99	5
112	20
113	5
126	13
127	5
142	413
143	25
