Mass Spectrum: 2-Benzimidazoleselenol
Formula: C7H6N2Se
CAS: 59403-74-6
Molecular weight: 198
m/z	intensity
33	1
34	2
35	0
37	40
38	66
39	116
40	32
41	38
42	13
43	34
44	27
45	50
46	5
47	2
48	1
49	6
50	38
51	50
52	77
53	10
54	5
55	8
56	3
57	8
58	3
59	8
60	18
61	22
62	47
63	167
64	135
65	158
66	18
67	6
68	1
69	4
70	3
71	4
73	11
74	15
75	15
76	20
77	17
78	39
79	11
80	28
81	8
82	9
83	7
84	3
85	5
86	3
87	7
88	12
89	19
90	97
91	201
92	53
93	30
94	4
95	7
97	20
98	40
99	63
100	15
101	3
102	3
103	5
104	7
105	22
106	11
107	7
108	3
109	1
110	1
111	1
112	1
113	2
114	3
115	7
116	27
117	42
118	999
119	86
120	5
121	1
122	1
123	0
124	0
125	1
127	1
128	2
129	3
130	2
131	3
132	1
133	1
134	10
135	1
137	1
138	0
139	3
140	3
141	6
142	6
143	9
144	7
145	2
146	1
147	0
149	4
150	3
151	1
152	0
154	0
155	0
156	2
157	1
158	2
159	0
160	3
162	1
164	2
165	0
166	8
167	7
168	19
169	5
170	36
171	5
172	8
173	1
174	1
181	0
191	1
192	9
193	8
194	92
195	93
196	221
197	59
198	442
199	42
200	81
201	7
