Mass Spectrum: 1-Butanol, 3-(1-ethoxyethoxy)-2-methyl-
Formula: C9H20O3
CAS: 59410-44-5
Molecular weight: 176
m/z	intensity
26	3
27	28
28	8
29	55
30	2
31	33
37	0
38	1
39	15
40	3
41	76
42	23
43	65
44	21
45	750
46	16
47	35
48	0
49	0
50	2
51	3
52	6
53	6
54	2
55	19
56	75
57	36
58	4
59	6
60	0
61	17
62	0
63	0
64	0
65	1
66	0
67	3
68	3
69	117
70	10
71	20
72	19
73	999
74	38
75	67
76	3
77	3
78	1
79	9
80	1
81	1
82	0
83	2
84	3
85	5
86	8
87	166
88	9
89	15
90	0
91	19
92	1
93	0
94	0
95	0
96	0
97	2
98	1
99	4
100	2
101	4
102	0
103	8
104	1
105	5
106	0
107	0
108	0
109	0
110	0
111	1
112	1
113	4
114	0
115	8
116	1
117	32
118	2
119	0
120	1
121	0
123	0
124	0
125	0
126	2
127	6
128	0
129	2
130	1
131	35
132	3
133	1
137	0
138	0
139	1
140	0
141	1
142	3
143	2
145	1
146	0
161	6
162	0
