Mass Spectrum: 4,5-Dimethyl-2H-1,3-oxazine-3H-2,6-dione
Formula: C6H7NO3
CAS: 59416-54-5
Molecular weight: 141
m/z	intensity
42	999
43	119
44	36
45	29
47	11
48	4
49	59
50	40
51	72
52	107
53	74
54	111
55	50
56	71
57	6
63	1
64	3
66	6
67	18
68	82
69	736
70	34
72	9
73	11
78	5
80	5
82	99
83	9
84	38
86	23
88	4
95	6
96	7
97	126
98	11
106	1
124	10
139	3
141	419
142	30
143	0
