Mass Spectrum: 2-Propenoic acid, 3-ethoxy-, ethyl ester, (E)-
Formula: C7H12O3
CAS: 5941-55-9
Molecular weight: 144
m/z	intensity
25	2
26	73
27	316
28	48
29	519
30	15
31	32
38	1
39	7
40	3
41	34
42	118
43	237
44	52
45	84
46	1
47	38
50	0
53	16
54	42
55	31
56	19
57	6
58	3
59	3
60	19
61	1
68	2
69	116
70	260
71	999
72	73
73	61
74	2
75	2
82	4
83	18
84	1
85	2
86	2
87	50
88	126
89	7
97	6
98	19
99	521
100	42
101	121
102	6
103	0
115	26
116	24
117	3
127	0
129	79
130	6
131	0
143	0
144	36
145	5
146	0
