Mass Spectrum: 1-Methyl-1-ethoxycyclobutane
Formula: C7H14O
CAS: 59416-06-7
Molecular weight: 114
m/z	intensity
51	20
53	40
55	20
57	60
58	999
59	100
67	20
69	140
71	60
86	500
87	40
99	10
100	1
114	1
