Mass Spectrum: 3-[9-(Pyridin-3-yl)-2,4,8,10-tetraoxaspiro[5.5]undecan-3-yl]pyridine
Formula: C17H18N2O4
CAS: 59426-31-2
Molecular weight: 314
m/z	intensity
37	10
38	42
39	541
40	196
41	680
42	90
43	343
44	50
45	10
47	5
49	5
50	89
51	399
52	471
53	552
54	115
55	172
56	22
57	23
59	2
61	1
62	6
63	31
64	26
65	55
66	25
67	21
68	7
69	46
71	237
72	12
73	2
75	4
76	12
78	920
79	490
80	193
81	15
82	5
83	139
84	12
85	2
89	1
90	3
91	9
92	56
93	148
94	11
96	7
99	203
100	11
101	1
104	2
106	233
108	999
109	131
110	13
117	25
118	31
119	8
120	10
121	7
122	8
124	148
125	9
129	2
130	20
131	6
132	76
133	14
134	30
135	2
136	1
140	1
144	4
145	1
146	18
147	9
148	16
149	2
150	1
151	2
157	1
158	1
159	4
160	9
161	16
162	131
163	16
164	137
165	13
169	2
171	1
176	35
177	14
178	280
179	31
180	4
191	3
192	22
193	2
194	6
206	23
207	19
208	20
209	1
222	4
235	1
236	367
237	49
238	5
313	169
314	248
315	65
