Mass Spectrum: 2-Butenoic acid, 4-methoxy-, methyl ester
Formula: C6H10O3
CAS: 59424-95-2
Molecular weight: 130
m/z	intensity
26	62
27	253
28	57
29	287
30	28
31	85
33	12
35	0
36	1
37	23
38	60
39	357
40	102
41	960
42	70
43	48
44	6
45	296
46	7
47	63
48	1
49	10
50	3
51	1
52	1
53	34
54	18
55	219
56	76
57	28
58	22
59	153
60	4
61	2
64	0
66	5
67	12
68	104
69	84
70	31
71	999
72	52
73	4
74	5
75	568
76	22
77	2
78	0
80	0
81	0
82	2
83	281
84	16
85	26
86	1
87	49
88	3
89	0
91	0
92	0
94	0
97	4
98	115
99	438
100	31
101	24
102	4
103	0
104	0
106	0
107	0
108	0
109	0
110	0
112	1
113	1
114	1
115	460
116	26
117	4
129	5
130	141
131	7
132	0
