Mass Spectrum: [5-(Hydroxymethyl)-2-(pyridin-3-yl)-1,3-dioxan-5-yl]methanol
Formula: C11H15NO4
CAS: 59426-32-3
Molecular weight: 225
m/z	intensity
38	15
39	146
40	96
41	253
42	168
43	143
44	57
45	19
47	20
50	39
51	136
52	82
53	115
54	98
55	136
56	85
57	192
58	19
59	8
63	25
64	17
65	9
68	6
69	87
70	111
71	226
72	14
73	10
74	107
77	13
78	251
79	139
80	706
81	46
83	168
84	72
85	15
87	17
88	9
91	12
92	21
93	39
98	8
99	45
100	6
101	22
105	14
106	589
107	130
108	999
109	130
110	10
117	5
121	8
123	21
124	739
125	56
130	12
132	7
137	80
138	5
146	6
147	431
148	38
149	9
150	23
164	9
176	54
177	44
178	48
179	5
194	28
195	8
207	28
208	15
224	311
225	169
226	42
