Mass Spectrum: Benzene, 1-chloro-4-[(chloromethyl)sulfonyl]-
Formula: C7H6Cl2O2S
CAS: 5943-04-4
Molecular weight: 224
m/z	intensity
49	100
50	210
51	85
74	110
75	390
76	110
111	999
113	320
159	130
175	990
177	230
224	220
226	160
