Mass Spectrum: 5-Iodo-nonane
Formula: C9H19I
CAS: 59456-19-8
Molecular weight: 254
m/z	intensity
27	351
28	99
29	400
38	20
39	297
40	49
41	848
42	197
43	999
44	29
53	99
54	49
55	597
56	249
57	596
58	29
67	59
68	20
69	149
70	129
71	647
72	30
82	19
83	59
84	59
85	400
86	29
97	60
98	29
126	19
127	549
128	49
254	50
