Mass Spectrum: Cyclohexanone, 2-methyl-5-(1-methylethyl)-
Formula: C10H18O
CAS: 59471-80-6
Molecular weight: 154
m/z	intensity
36	1
37	4
38	7
39	269
40	61
41	785
42	232
43	259
44	9
45	3
46	0
47	0
48	0
49	0
50	5
51	18
52	12
53	98
54	45
55	999
56	151
57	29
58	5
59	1
61	0
62	3
63	4
64	1
65	17
66	10
67	76
68	46
69	264
70	64
71	19
72	30
73	1
75	0
77	16
78	4
79	20
80	6
81	58
82	87
83	244
84	76
85	8
86	1
91	6
92	2
93	15
94	4
95	132
96	73
97	141
98	18
99	2
100	2
102	1
105	0
107	5
108	2
109	5
110	132
111	986
112	103
113	6
121	7
122	0
123	1
125	26
126	24
127	2
135	0
136	3
137	0
139	6
152	1
153	1
154	235
155	26
156	1
