Mass Spectrum: Ethyl 6-methyl-2-oxo-4-(2-thienyl)-1,2,3,4-tetrahydropyrimidine-5-carboxylate
Formula: C12H14N2O3S
CAS: 5948-72-1
Molecular weight: 266
m/z	intensity
38	63
39	491
40	81
41	131
42	999
43	121
44	131
45	307
50	35
51	85
52	151
53	111
54	93
55	47
57	79
58	123
59	35
63	92
64	41
65	184
66	185
67	223
68	118
69	206
70	134
71	66
75	39
76	34
77	72
78	47
79	52
80	47
81	54
82	146
83	115
84	222
85	88
89	52
90	34
91	35
94	121
95	77
96	168
97	133
104	38
107	35
108	158
109	307
110	940
111	175
112	50
117	63
119	32
121	99
122	81
123	70
124	46
133	36
134	105
135	94
136	75
137	463
138	256
139	34
148	81
149	71
150	402
151	56
152	50
153	30
154	40
155	363
156	30
175	48
176	78
178	153
183	258
191	218
192	468
193	926
194	198
195	64
219	220
220	228
221	150
222	42
237	885
238	115
239	51
265	73
266	440
267	69
268	28
