Mass Spectrum: 4-Nonene, 1-bromo-, (Z)-
Formula: C9H17Br
CAS: 59499-29-5
Molecular weight: 204
m/z	intensity
41	780
55	999
69	750
83	400
95	130
107	40
109	40
121	20
135	80
148	200
150	200
162	90
164	90
204	80
206	80
