Mass Spectrum: 3-Oxabicyclo[3.2.1]octane-2,4-dione, 1,8,8-trimethyl-, (1S)-
Formula: C10H14O3
CAS: 595-31-3
Molecular weight: 182
m/z	intensity
14	1
15	10
26	9
27	164
28	32
29	86
30	2
31	1
37	3
38	12
39	223
40	40
41	571
42	30
43	59
44	3
45	6
46	4
47	1
49	1
50	14
51	41
52	21
53	109
54	23
55	456
56	21
57	2
59	1
61	1
62	4
63	10
64	3
65	36
66	14
67	195
68	35
69	693
70	37
71	3
74	1
75	1
77	58
78	12
79	65
80	19
81	34
82	48
83	516
84	35
85	1
89	1
91	27
92	5
93	31
94	16
95	999
96	107
97	15
98	1
105	5
107	6
108	3
109	26
110	138
111	12
112	1
120	3
121	1
123	152
124	13
125	1
137	4
138	394
139	40
140	2
