Mass Spectrum: 2-Carbomethoxyaziridine
Formula: C4H7NO2
CAS: 5950-34-5
Molecular weight: 101
m/z	intensity
15	435
16	66
17	9
27	66
28	9
29	158
30	67
31	197
32	11
40	39
41	999
42	735
43	407
44	39
45	92
46	11
55	53
56	6
58	66
59	79
60	8
69	630
70	105
71	53
72	9
86	26
87	7
101	13
102	9
