Mass Spectrum: [2,2'-Bi-1H-indene]-1,1'-dione, 2,2',3,3'-tetrahydro-2,2',3,3,3',3'-hexahydroxy-
Formula: C18H14O8
CAS: 5950-69-6
Molecular weight: 358
m/z	intensity
12	1
13	1
16	1
17	15
18	56
24	1
25	4
26	11
27	18
28	58
29	37
30	15
31	3
32	1
36	11
37	108
38	153
39	50
40	3
41	6
42	3
43	14
44	6
45	1
48	8
49	61
50	542
51	218
52	92
53	35
54	2
55	5
56	1
57	4
58	5
60	9
61	35
62	42
63	31
64	3
65	2
66	20
67	6
69	6
70	1
71	2
72	5
73	44
74	179
75	126
76	969
77	596
78	93
79	8
81	1
82	1
83	2
84	5
85	11
86	15
87	13
88	33
89	27
90	5
95	1
97	1
98	2
101	2
103	5
104	999
105	963
106	143
107	10
109	1
111	1
117	1
118	2
132	334
133	161
134	183
135	15
136	1
144	7
145	1
146	4
149	1
160	97
161	12
162	521
163	52
164	6
322	4
