Mass Spectrum: .alpha.-Tetralone, 5,6-dibenzyloxy-
Formula: C24H22O3
CAS: 59515-93-4
Molecular weight: 358
m/z	intensity
41	15
42	2
43	6
44	1
45	2
47	4
48	2
49	21
50	10
51	32
52	7
53	5
54	1
55	8
56	3
57	5
60	0
61	1
62	4
63	25
64	18
65	108
66	8
67	3
68	1
69	3
70	1
71	2
73	1
74	2
75	3
76	6
77	28
78	16
79	8
80	0
81	1
82	1
83	2
84	15
85	2
86	9
87	1
88	2
89	22
90	1
91	999
92	126
93	6
94	1
95	1
96	0
97	1
99	0
101	0
102	1
103	5
104	5
105	21
106	9
107	4
108	2
109	1
110	0
111	0
113	0
115	3
116	0
117	0
118	1
119	4
120	22
121	4
122	6
123	1
124	4
125	0
126	0
127	0
128	1
129	0
131	2
132	0
133	1
134	1
135	0
139	0
141	1
145	0
147	2
148	2
149	1
150	2
151	1
152	2
153	3
154	1
155	0
161	1
162	1
163	2
164	0
165	5
166	2
167	4
168	0
169	0
175	0
176	1
177	1
178	9
179	5
180	3
181	69
182	13
183	2
189	3
190	4
191	2
192	0
193	1
194	0
195	1
196	0
197	0
203	0
207	0
209	1
210	1
211	4
212	1
213	0
219	0
221	1
222	0
223	0
224	0
225	0
226	0
231	0
237	0
238	2
239	7
240	2
241	0
249	1
250	1
251	1
252	1
253	0
265	5
266	13
267	235
268	45
269	6
270	0
282	13
283	2
330	1
358	97
359	25
360	4
361	0
