Mass Spectrum: 2-Chloro-3-(chloromethyl)-4-pentenoic acid, ethyl ester
Formula: C8H12Cl2O2
CAS: 59518-32-0
Molecular weight: 210
m/z	intensity
25	2
26	43
27	396
28	185
29	999
30	22
31	17
35	1
36	10
37	8
38	27
39	260
40	44
41	212
42	40
43	59
44	9
45	34
49	55
50	32
51	96
52	71
53	624
54	192
55	73
56	29
57	45
58	2
59	1
60	1
61	11
62	13
63	18
64	5
65	226
66	42
67	253
68	32
69	17
70	10
71	6
72	4
73	17
74	7
75	355
76	44
77	111
78	12
79	38
80	86
81	77
82	26
83	30
84	3
85	7
86	4
87	11
88	47
89	424
90	32
91	128
92	5
93	11
94	297
95	8
96	97
97	32
98	13
99	6
100	2
101	129
102	25
103	70
104	7
105	10
106	14
107	34
108	29
109	3
110	5
111	234
112	12
113	4
115	4
116	3
117	2
118	3
119	2
120	1
121	2
122	382
123	16
124	170
125	14
126	3
127	2
128	2
129	25
130	3
131	7
132	1
133	26
134	1
135	9
136	15
137	23
138	7
139	308
140	24
141	6
142	1
143	1
144	0
145	5
146	59
147	208
148	30
149	68
150	4
151	0
152	1
153	30
154	6
155	2
161	57
162	4
163	15
164	1
165	42
166	2
167	24
168	1
169	4
173	0
174	8
175	369
176	29
177	114
178	9
179	0
180	1
181	2
182	1
183	0
184	0
210	4
211	0
212	2
