Mass Spectrum: 2H-1-Benzoxecin-2,7(8H)-dione, 3,4,5,6-tetrahydro-
Formula: C13H14O3
CAS: 59528-94-8
Molecular weight: 218
m/z	intensity
26	37
27	235
28	228
29	151
30	3
31	4
37	6
38	25
39	252
40	32
41	215
42	97
43	74
44	6
45	9
49	2
50	63
51	177
52	150
53	69
54	14
55	999
56	91
57	13
58	4
61	3
62	18
63	58
64	16
65	22
66	8
67	24
68	26
69	29
70	4
71	5
72	1
73	3
74	13
75	15
76	24
77	212
78	483
79	106
80	11
81	7
82	12
83	321
84	69
85	7
86	4
87	6
88	5
89	43
90	24
91	35
92	7
93	8
94	64
95	9
96	8
97	6
101	3
102	16
103	17
104	3
105	33
106	219
107	753
108	267
109	27
110	1
111	479
112	68
113	24
114	6
115	54
116	15
117	9
118	13
119	9
120	8
121	11
122	15
125	5
127	8
128	9
129	7
130	5
131	86
132	34
133	23
134	214
135	32
136	3
141	3
143	4
144	159
145	56
146	24
147	14
149	3
150	29
151	3
153	2
155	3
157	13
158	9
159	20
160	3
161	5
162	2
163	12
169	3
170	1
171	46
172	73
173	20
174	5
182	2
183	10
185	5
189	2
190	33
191	5
198	3
199	14
200	285
201	51
202	5
218	216
219	35
220	4
