Mass Spectrum: Benzamide, 2-(2-methyl-1-oxopropyl)amino-
Formula: C11H14N2O2
CAS: 59525-15-4
Molecular weight: 206
m/z	intensity
34	0
35	2
37	26
38	68
39	309
40	67
41	432
42	90
43	999
44	187
45	17
46	2
47	4
48	1
49	4
50	47
51	84
52	78
53	47
54	20
55	36
56	6
57	6
58	5
59	3
60	3
61	9
62	37
63	135
64	149
65	290
66	49
67	10
68	7
69	17
70	23
71	100
72	8
74	20
75	26
76	34
77	68
78	16
79	14
80	63
81	8
82	3
83	9
84	2
85	7
86	2
87	5
88	9
90	350
91	130
92	312
93	31
94	4
95	2
99	0
100	1
101	4
102	33
103	7
104	7
105	12
106	8
107	69
108	8
109	1
111	2
112	1
113	1
114	0
115	3
116	7
117	46
118	110
119	806
120	144
121	11
122	0
127	1
128	3
129	4
130	9
131	3
132	8
133	3
136	864
137	73
138	5
141	0
142	3
143	2
144	9
146	768
147	65
148	8
149	2
155	1
157	0
158	1
160	21
161	13
162	54
163	489
164	44
165	5
170	0
171	2
172	2
173	32
174	27
175	4
177	1
184	0
185	1
186	1
187	9
188	19
189	14
190	6
191	1
192	0
204	3
206	325
207	40
208	3
