Mass Spectrum: Phosphoric acid, dibutyl 1-methylethenyl ester
Formula: C11H23O4P
CAS: 5954-40-5
Molecular weight: 250
m/z	intensity
39	56
40	23
41	167
43	46
53	15
54	20
55	61
56	56
57	146
58	51
59	23
99	999
137	61
138	375
139	295
140	17
151	17
153	11
155	59
193	10
194	61
195	119
196	13
250	102
251	11
