Mass Spectrum: Phosphoric acid, diethyl 1-methylethenyl ester
Formula: C7H15O4P
CAS: 5954-28-9
Molecular weight: 194
m/z	intensity
31	44
41	104
42	52
43	232
45	62
57	51
58	256
65	51
81	274
82	42
99	999
100	16
109	120
111	16
121	33
125	42
127	517
138	26
155	317
166	16
194	155
