Mass Spectrum: Lavandulyl caproate
Formula: C16H28O2
CAS: 59550-36-6
Molecular weight: 252
m/z	intensity
27	20
29	29
39	70
40	16
41	353
42	32
43	302
45	8
51	15
53	71
55	71
56	14
57	16
59	9
65	14
67	170
68	567
69	949
70	38
71	207
72	25
73	11
77	28
79	49
80	266
81	104
82	51
83	10
84	10
91	29
92	130
93	999
94	144
95	44
97	21
99	353
100	32
101	7
105	55
107	81
108	46
110	11
119	16
121	451
122	44
123	69
125	7
128	13
136	104
137	22
138	8
170	21
183	12
252	1
