Mass Spectrum: Lavandulyl butyrate
Formula: C14H24O2
CAS: 59550-35-5
Molecular weight: 224
m/z	intensity
27	37
29	25
31	3
38	2
39	76
40	21
41	428
42	39
43	411
44	15
45	4
51	8
52	6
53	81
54	11
55	48
56	16
57	34
59	4
60	4
65	27
66	9
67	197
68	538
69	999
70	62
71	620
72	30
77	40
79	74
80	226
81	94
82	34
83	7
84	11
85	44
86	5
89	11
91	59
92	119
93	903
94	106
95	38
96	9
97	7
101	2
105	38
107	115
108	33
113	5
114	2
121	408
122	44
123	56
124	8
135	10
136	188
137	30
141	7
142	24
153	3
154	6
155	18
156	3
168	1
181	1
183	4
224	4
