Mass Spectrum: (3R,5aS,9aR)-2,2,5a,9-Tetramethyl-3,4,5,5a,6,7-hexahydro-2H-3,9a-methanobenzo[b]oxepine
Formula: C15H24O
CAS: 5956-12-7
Molecular weight: 220
m/z	intensity
26	1
27	24
28	4
29	33
38	2
39	95
40	14
41	231
42	17
43	194
45	8
46	1
50	4
51	29
52	13
53	112
54	93
55	175
56	14
57	25
58	5
63	9
64	4
65	63
66	17
67	110
69	116
74	1
75	1
76	2
77	181
78	44
79	181
81	177
82	999
83	141
89	5
90	2
91	371
92	47
95	186
96	86
97	42
98	7
99	3
102	6
103	39
104	16
105	273
106	58
109	336
110	42
111	13
112	2
113	4
115	45
116	18
117	58
118	15
119	123
120	43
122	152
123	337
124	143
125	37
126	4
127	8
128	28
129	28
130	15
131	132
132	24
133	70
136	57
137	55
138	14
141	5
142	5
143	11
145	105
146	21
147	401
148	45
149	73
150	18
151	106
152	30
153	3
156	1
157	4
158	3
159	120
160	19
162	103
164	80
165	13
172	1
177	83
178	9
187	103
188	11
191	2
192	1
202	178
203	31
205	199
206	30
219	1
220	371
221	60
222	6
