Mass Spectrum: 1,3,4-Thiadiazol-2-amine, 5-(2-fluorophenyl)-
Formula: C8H6FN3S
CAS: 59565-51-4
Molecular weight: 195
m/z	intensity
33	12
34	5
35	0
36	3
37	15
38	17
39	32
40	8
41	10
42	31
43	7
44	16
45	51
46	15
47	47
48	4
49	12
50	55
51	34
52	6
53	1
54	1
55	2
56	11
57	60
58	11
59	20
60	117
61	20
62	29
63	35
64	10
65	3
66	1
68	32
69	86
70	24
71	7
74	999
75	144
76	59
77	6
78	1
79	2
80	9
81	38
82	23
83	6
84	3
85	6
86	7
87	22
88	9
89	12
90	2
91	3
92	7
93	33
94	69
95	152
96	15
98	20
99	4
100	9
102	51
103	4
104	4
105	6
106	9
107	77
108	59
109	56
110	4
111	2
112	4
113	3
114	1
115	1
116	2
117	3
118	2
119	8
121	101
122	208
123	24
125	3
126	10
127	3
128	1
129	1
130	0
131	0
132	0
133	6
134	3
136	61
137	11
139	259
140	22
141	11
142	1
143	0
144	0
145	0
146	0
147	0
148	0
149	0
151	2
152	7
153	72
154	6
155	4
156	0
157	0
158	0
159	0
161	0
162	0
166	0
167	0
168	0
169	2
170	0
171	0
172	0
173	0
175	0
177	4
179	2
180	0
187	0
190	0
191	0
195	666
196	68
197	29
198	2
199	0
