Mass Spectrum: 2-Ethoxyethylisothiocyanate
Formula: C5H9NOS
CAS: 59565-11-6
Molecular weight: 131
m/z	intensity
27	574
29	888
30	630
31	999
41	120
42	105
43	215
44	171
45	360
46	68
56	23
57	22
58	103
59	740
60	178
61	23
70	49
71	26
72	470
73	159
74	53
76	24
84	23
86	219
87	33
88	235
89	21
90	18
98	50
102	275
103	42
114	63
115	257
116	359
117	47
118	19
130	19
131	218
132	45
133	12
