Mass Spectrum: Bicyclo[2.2.1]heptan-2-ol, 3,3-dimethyl-
Formula: C9H16O
CAS: 5957-68-6
Molecular weight: 140
m/z	intensity
27	386
29	325
39	530
41	999
43	578
53	214
55	501
57	947
67	465
69	790
70	366
71	169
72	164
79	349
81	214
83	306
84	458
93	169
96	306
97	407
107	431
109	410
121	354
140	236
