Mass Spectrum: 2-Acetyl-4-methylpyridine
Formula: C8H9NO
CAS: 59576-26-0
Molecular weight: 135
m/z	intensity
37	21
38	16
39	205
40	18
41	28
42	27
43	287
44	14
46	6
50	31
51	39
52	46
53	27
54	19
55	4
61	7
62	18
63	50
64	59
65	345
66	333
67	36
75	2
76	5
77	13
78	13
79	17
80	4
86	0
87	2
88	1
90	2
91	11
92	664
93	999
94	81
95	2
106	13
107	35
108	5
120	19
121	1
135	756
136	65
137	3
