Mass Spectrum: Methyl 3,9,11-guaiatrien-12-oate
Formula: C16H22O2
CAS: 59588-64-6
Molecular weight: 246
m/z	intensity
41	360
55	270
65	160
77	360
79	490
91	650
94	580
105	830
119	999
131	390
134	870
145	400
146	250
147	350
158	360
159	350
171	510
187	600
199	180
214	270
231	230
246	960
