Mass Spectrum: Methyl trityl ether
Formula: C20H18O
CAS: 596-31-6
Molecular weight: 274
m/z	intensity
15	38
17	6
18	8
26	3
27	55
29	17
30	6
38	9
39	81
41	5
50	66
51	290
52	30
53	7
61	2
62	16
63	57
64	9
65	28
69	3
74	19
75	32
77	902
78	101
79	5
82	8
86	10
87	21
88	20
89	31
90	7
91	96
92	10
93	13
94	5
95	30
98	7
99	7
100	13
101	27
102	14
103	3
104	3
105	999
106	97
107	30
111	4
113	45
114	20
115	60
116	6
119	57
121	36
126	20
127	14
128	8
129	2
137	32
138	9
139	43
140	7
141	5
149	3
150	14
151	29
152	67
153	35
154	14
161	4
163	52
165	578
166	98
167	18
168	3
174	3
175	3
176	13
177	4
178	4
181	35
182	6
186	3
187	15
188	12
189	24
190	4
195	7
197	986
198	152
199	15
200	16
201	11
202	32
203	9
211	5
212	4
213	22
214	4
215	53
216	12
224	3
225	6
226	31
227	19
228	52
229	12
237	17
239	88
240	32
241	73
242	6
243	509
244	115
245	13
259	7
274	412
275	84
276	9
