Mass Spectrum: Pregn-4-ene-3,20-dione, 19-hydroxy-
Formula: C21H30O3
CAS: 596-63-4
Molecular weight: 330
m/z	intensity
40	7
41	165
43	999
45	8
53	56
55	146
57	5
65	41
66	9
67	95
68	6
69	33
71	85
77	103
78	32
79	153
80	20
81	96
83	24
84	19
85	53
91	194
92	27
93	109
94	21
95	108
97	13
103	11
104	21
105	95
106	22
107	93
108	39
109	68
110	181
111	19
115	25
116	17
117	74
118	17
119	69
120	29
121	58
122	41
123	30
124	11
128	23
129	35
130	10
131	70
132	27
133	86
134	20
135	66
136	13
137	20
138	5
140	7
141	11
142	12
143	36
144	9
145	55
146	20
147	104
148	28
149	24
155	11
157	28
158	10
159	70
160	34
161	68
162	25
163	21
169	11
171	31
172	9
173	36
174	10
175	21
177	8
183	11
185	22
187	33
189	11
191	9
197	23
199	25
211	6
213	25
215	27
221	5
227	14
229	20
230	21
239	17
241	9
242	18
248	6
255	16
257	123
258	23
260	5
269	12
271	6
281	39
282	26
285	8
287	6
298	14
299	124
300	706
312	19
330	180
