Mass Spectrum: Ergotaman-3',6',18-trione, 12'-hydroxy-2'-methyl-5'-(2-methylpropyl)-, (5'.alpha.,8.alpha.)-
Formula: C30H37N5O5
CAS: 596-88-3
Molecular weight: 547
m/z	intensity
55	184
57	158
59	80
69	242
70	999
71	126
83	80
85	51
86	71
96	49
97	79
98	48
111	51
112	51
124	87
125	108
139	60
153	88
154	594
155	70
167	91
168	80
195	78
196	177
197	39
207	40
209	170
210	200
221	40
224	210
226	9
267	89
268	19
