Mass Spectrum: 1,2-Ethanediol, 1,2-dichloro-, diacetate
Formula: C6H8Cl2O4
CAS: 59602-17-4
Molecular weight: 214
m/z	intensity
35	70
36	370
38	120
41	70
42	220
43	999
44	210
48	10
49	40
50	10
60	10
61	10
63	10
100	30
102	10
108	240
110	80
137	150
139	50
179	30
181	10
