Mass Spectrum: 2-(4-Nitrophenyl)-5-(4-chlorphenyl)-tetrazol
Formula: C13H8ClN5O2
CAS: 59635-38-0
Molecular weight: 301
m/z	intensity
14	5
16	4
17	9
18	26
26	21
27	31
28	53
30	999
31	4
32	9
35	2
36	6
37	58
38	94
39	352
40	32
41	7
42	37
43	7
44	4
46	10
49	10
50	156
51	147
52	125
53	22
54	6
55	4
57	4
60	5
61	30
62	179
63	665
64	235
65	17
66	3
68	4
69	3
70	2
71	3
72	3
73	32
74	39
75	117
76	74
77	15
78	53
79	30
80	192
81	11
82	3
84	5
85	9
86	17
87	22
88	36
89	211
90	691
91	52
92	7
94	3
97	7
98	4
99	11
100	16
101	13
102	158
103	17
104	5
105	12
106	77
107	8
109	6
110	11
111	30
112	7
113	11
114	3
119	3
120	13
122	6
123	7
124	3
125	6
136	313
137	158
138	40
139	313
140	34
141	95
142	7
149	5
150	2
151	22
152	5
153	9
161	2
162	2
163	6
164	9
165	5
166	2
178	2
179	168
180	21
181	55
182	6
191	5
192	18
193	4
198	5
199	10
200	5
201	5
202	2
208	1
210	6
215	5
216	2
217	2
226	5
227	65
228	14
229	23
230	4
238	2
243	17
244	3
245	6
246	1
256	4
257	3
258	2
259	1
273	404
274	62
275	137
276	20
277	2
301	2
303	0
