Mass Spectrum: 2,5-Di-(4-nitrophenyl)-tetrazol
Formula: C13H8N6O4
CAS: 59635-48-2
Molecular weight: 312
m/z	intensity
14	4
15	1
16	3
17	3
18	10
26	14
27	28
28	54
30	999
31	4
32	5
36	2
37	246
38	71
39	275
40	23
41	4
42	30
43	3
44	4
46	20
49	4
50	104
51	135
52	99
53	16
54	4
55	2
61	18
62	147
63	570
64	199
65	14
66	2
68	3
73	3
74	27
75	91
76	77
77	14
78	44
79	21
80	165
81	10
82	1
85	2
86	9
87	14
88	29
89	210
90	546
91	43
92	10
93	1
94	3
99	4
100	3
101	4
102	105
103	19
104	10
105	6
106	35
107	3
108	2
109	3
113	1
114	1
116	3
118	7
119	3
120	11
121	1
122	5
125	2
126	1
132	14
133	2
134	2
136	622
137	46
138	8
139	2
140	1
144	1
148	3
149	3
150	65
151	7
152	4
153	1
160	5
161	1
162	4
163	4
164	7
165	3
166	1
179	2
180	2
190	63
191	9
192	5
193	1
196	1
208	6
209	2
210	3
211	1
237	1
238	27
239	5
240	0
254	7
255	1
267	2
268	3
269	0
284	397
285	65
286	8
287	1
