Mass Spectrum: 2,3-Dimethyl-3-heptene, (Z)-
Formula: C9H18
CAS: 59643-73-1
Molecular weight: 126
m/z	intensity
15	8
26	6
27	144
28	8
29	111
30	3
36	1
37	1
38	7
39	138
40	25
41	522
42	77
43	162
44	5
46	1
50	9
51	20
52	10
53	73
54	26
55	946
56	180
57	49
58	2
62	2
63	6
64	1
65	15
66	8
67	84
68	27
69	999
70	340
71	29
72	1
74	1
75	1
77	13
78	3
79	17
80	5
81	31
82	44
83	621
84	368
85	31
86	1
91	5
92	1
93	3
94	1
95	11
96	4
97	118
98	12
109	3
110	1
111	29
112	3
124	1
126	258
127	26
128	2
