Mass Spectrum: 2,3-Diaminophenol
Formula: C6H8N2O
CAS: 59649-56-8
Molecular weight: 124
m/z	intensity
27	62
28	211
29	47
38	70
39	150
41	165
48	66
51	110
52	376
53	121
54	58
55	25
62	70
65	26
66	36
67	75
68	89
69	27
78	172
79	313
80	79
81	18
94	28
95	287
96	44
105	55
106	52
107	279
108	34
109	22
123	38
124	999
125	69
