Mass Spectrum: s-Triazine-2,4,6(1H,3H,5H)-trione, 1,3,5-tris(2,3-epoxypropyl)-, .beta.-
Formula: C12H15N3O6
CAS: 59653-74-6
Molecular weight: 297
m/z	intensity
14	4
15	49
16	1
17	4
18	20
26	17
27	179
28	179
29	189
30	50
31	244
32	3
37	1
38	2
39	20
40	71
41	175
42	187
43	154
44	97
45	15
46	1
51	1
52	3
53	7
54	57
55	129
56	999
57	263
58	52
59	3
60	1
61	1
65	1
66	2
67	13
68	68
69	181
70	735
71	79
72	47
73	7
74	5
77	1
78	1
79	1
80	5
81	13
82	686
83	174
84	105
85	31
86	109
87	76
88	5
91	1
92	1
93	7
94	4
95	22
96	37
97	39
98	226
99	558
100	136
101	15
102	2
106	1
107	1
108	3
109	12
110	24
111	94
112	65
113	141
114	18
115	7
116	4
117	1
118	1
119	1
120	2
121	11
122	3
123	23
124	48
125	153
126	44
127	49
128	9
129	20
130	53
131	3
135	1
136	2
137	10
138	11
139	45
140	12
141	44
142	30
143	312
144	26
145	3
149	2
150	1
151	7
152	7
153	19
154	35
155	41
156	112
157	19
158	3
164	1
165	2
166	9
167	13
168	23
169	70
170	32
171	18
172	5
173	3
174	1
178	2
179	5
180	11
181	21
182	23
183	22
184	26
185	28
186	24
187	2
190	5
191	1
192	2
193	3
194	16
195	15
196	16
197	11
198	30
199	65
200	7
201	1
203	1
204	1
206	2
207	10
208	11
209	21
210	26
211	25
212	47
213	13
214	2
220	4
221	4
222	8
223	12
224	36
225	45
226	49
227	9
228	2
233	1
234	2
236	14
237	117
238	50
239	104
240	21
241	10
242	29
243	3
249	1
250	31
251	14
252	7
253	5
254	83
255	734
256	91
257	12
258	1
266	76
267	322
268	110
269	38
270	5
278	2
279	7
280	9
281	3
282	2
296	14
297	156
298	24
299	3
