Mass Spectrum: Cyclopropanedecanoic acid, 2-hexyl-, methyl ester
Formula: C20H38O2
CAS: 5965-63-9
Molecular weight: 310
m/z	intensity
39	240
40	51
41	930
42	320
43	880
44	35
45	48
51	13
52	12
53	160
54	330
55	999
56	590
57	450
58	25
59	340
60	15
65	32
66	29
67	460
68	290
69	990
70	410
71	190
72	19
73	84
74	990
75	140
76	11
77	33
78	11
79	89
80	53
81	390
82	280
83	890
84	560
85	140
86	11
87	640
88	64
91	27
92	9
93	56
94	64
95	320
96	560
97	690
98	510
99	72
100	13
101	100
102	15
105	15
106	8
107	47
108	45
109	180
110	280
111	330
112	130
113	48
114	67
115	120
116	24
119	35
120	13
121	59
122	37
123	190
124	190
125	200
126	69
127	48
128	85
129	92
130	37
133	32
134	31
135	56
136	27
137	130
138	160
139	150
140	61
141	110
142	32
143	99
144	17
147	27
148	32
149	76
150	21
151	83
152	120
153	91
154	21
155	27
156	11
157	43
158	12
160	19
161	21
162	13
163	53
164	20
165	64
166	99
167	110
168	19
169	25
170	8
171	59
172	13
175	21
176	9
177	16
178	21
179	45
180	100
181	77
182	16
183	35
184	8
185	51
186	13
189	16
190	7
191	9
192	8
193	39
194	180
195	52
196	13
197	27
198	8
199	72
200	16
203	8
207	35
208	52
209	17
210	8
211	17
212	8
213	61
214	21
221	35
222	35
223	13
224	8
225	16
226	8
227	24
228	13
234	72
235	53
236	230
237	61
238	8
239	8
240	8
241	11
242	8
249	37
250	45
253	7
255	7
260	44
261	16
267	19
278	960
279	430
280	15
292	11
298	16
310	160
311	43
