Mass Spectrum: Molybdenum, carbonyl(.eta.5-2,4-cyclopentadien-1-yl)[N-methyl-P,P-diphenyl-N-(1-phenylethyl)phosphinous amide-P]nitrosyl-, stereoisomer
Formula: C27H27MoN2O2P
CAS: 59657-12-4
Molecular weight: 540
m/z	intensity
105	999
109	420
183	430
185	280
214	130
262	100
319	30
348	620
377	270
379	230
435	20
455	20
482	150
512	580
540	180
