Mass Spectrum: Methylthiomethyl p-tolyl sulfone
Formula: C9H12O2S2
CAS: 59662-65-6
Molecular weight: 216
m/z	intensity
15	3
27	47
32	6
34	1
35	65
37	3
38	4
39	43
40	4
41	12
44	2
45	50
46	17
47	5
48	1
50	9
51	17
52	5
53	4
58	2
59	10
60	14
61	999
62	39
63	60
64	7
65	69
66	4
67	3
69	2
71	1
74	2
75	2
76	2
77	17
78	7
79	13
86	2
87	1
89	16
90	7
91	56
92	8
93	5
95	1
97	1
103	7
104	3
105	78
106	7
107	1
109	1
111	2
121	2
122	1
123	1
135	2
137	17
138	4
139	22
140	3
141	1
152	4
155	2
216	93
217	10
218	9
219	1
