Mass Spectrum: Pentanoic acid, 3-butenyl ester
Formula: C9H16O2
CAS: 59673-39-1
Molecular weight: 156
m/z	intensity
26	21
27	201
28	93
29	316
30	9
31	12
36	0
37	2
38	8
39	179
40	20
41	288
42	58
43	34
44	2
45	9
50	5
51	10
52	5
53	44
54	594
55	312
56	51
57	590
58	28
59	8
60	16
61	1
65	1
67	1
68	14
69	8
70	2
71	6
72	2
73	16
74	1
75	2
77	0
78	0
79	0
80	0
81	2
82	1
83	10
85	999
86	100
87	8
88	0
95	1
96	4
97	1
99	8
100	1
101	5
102	1
103	3
106	0
111	0
113	1
114	28
115	80
116	5
117	0
126	0
127	9
128	0
156	1
