Mass Spectrum: Hexanoic acid, 3-butenyl ester
Formula: C10H18O2
CAS: 59673-40-4
Molecular weight: 170
m/z	intensity
25	1
26	19
27	220
28	74
29	263
30	8
31	10
37	2
38	7
39	192
40	25
41	224
42	128
43	614
44	26
45	12
48	1
50	5
51	10
52	5
53	51
54	703
55	444
56	48
57	14
58	4
59	4
60	27
61	2
65	1
67	5
68	30
69	54
70	26
71	371
72	25
73	40
74	3
75	1
77	1
79	1
80	2
81	10
82	2
83	7
84	1
85	2
86	84
87	16
88	1
89	2
91	1
95	2
96	7
97	16
99	999
100	74
101	6
109	1
110	3
111	1
113	1
114	33
115	9
116	3
117	5
127	37
128	5
129	47
130	3
141	15
142	1
170	1
