Mass Spectrum: 2,4-Dimethoxybenzaldehyde 1-methyl-1-phenylhydrazone
Formula: C16H18N2O2
CAS: 59670-44-9
Molecular weight: 270
m/z	intensity
36	9
37	46
38	180
39	177
40	45
41	66
42	72
43	31
49	70
50	333
51	379
52	105
53	60
54	23
55	18
58	11
59	15
61	46
62	174
63	244
64	214
65	250
66	180
67	19
68	28
69	40
73	22
76	799
77	999
78	353
79	304
80	31
81	9
88	25
89	52
90	118
91	196
92	141
93	47
94	45
95	23
102	13
103	120
104	160
105	404
106	637
107	326
108	58
109	22
111	16
115	18
117	34
118	19
119	38
120	263
121	399
122	198
123	19
127	23
128	22
131	27
133	287
134	94
135	68
136	37
137	65
138	41
141	9
146	10
149	649
150	76
151	21
152	19
153	12
154	13
155	9
162	10
163	131
164	55
166	9
167	11
168	22
169	16
170	11
178	8
181	19
182	23
183	16
184	9
194	9
196	17
197	51
198	9
210	9
211	29
212	11
213	11
224	9
225	12
239	30
240	27
254	21
255	48
269	210
270	666
271	114
272	10
