Mass Spectrum: Diethyl 2-methylphenyl phosphate
Formula: C11H17O4P
CAS: 597-87-5
Molecular weight: 244
m/z	intensity
77	389
81	239
91	428
99	68
107	999
108	366
109	70
117	157
118	108
119	110
127	49
187	677
188	585
201	130
215	139
216	168
229	39
244	698
