Mass Spectrum: Benzoic acid 2-methylpentyl ester
Formula: C13H18O2
CAS: 59736-57-1
Molecular weight: 206
m/z	intensity
27	19
29	18
39	17
40	2
41	47
42	31
43	53
45	2
50	12
51	57
52	3
53	3
54	2
55	40
56	268
57	14
67	2
69	87
70	5
71	2
74	3
75	3
76	13
77	274
78	23
79	14
83	6
84	390
85	28
91	4
92	3
104	4
105	999
106	80
107	6
122	13
123	195
124	15
134	5
135	9
