Mass Spectrum: 2(1H)-Naphthalenone, 5-[2-(3-furanyl)ethyl]octahydro-1,5,6,8a-tetramethyl-, [1R-(1.alpha.,4a.beta.,5.beta.,6.alpha.,8a.beta.)]-
Formula: C20H30O2
CAS: 59742-40-4
Molecular weight: 302
m/z	intensity
27	107
28	11
29	100
39	121
40	29
41	714
42	85
43	142
51	23
52	18
53	357
54	35
55	500
56	24
65	64
66	22
67	285
68	85
69	357
70	29
71	30
73	132
77	89
78	18
79	125
80	23
81	714
82	250
83	85
84	27
85	78
91	114
92	14
93	107
94	500
95	999
96	428
97	78
103	13
105	71
106	132
107	135
108	22
109	222
110	22
111	85
115	17
117	15
119	64
120	26
121	100
122	64
123	714
124	182
125	32
128	10
131	18
133	37
134	14
135	50
136	27
137	285
138	32
139	10
143	10
145	18
147	26
148	15
149	85
150	22
151	57
159	12
161	18
163	21
165	16
175	16
189	71
190	135
191	35
192	19
203	19
204	35
205	64
206	192
207	285
208	335
217	14
218	15
219	11
259	9
274	12
287	12
302	500
303	92
304	12
