Mass Spectrum: 2-Oxabicyclo[2.2.1]heptane-1-carboxylic acid, 4,7,7-trimethyl-3-oxo-, 1-methyl-1,3-propanediyl ester, [1s-[1.alpha.[s*(1R*,4s*)],4.beta. ]]-
Formula: C24H34O8
CAS: 59744-06-8
Molecular weight: 450
m/z	intensity
27	56
28	26
29	101
39	87
40	20
41	432
42	60
43	228
53	86
54	43
55	999
56	186
57	65
60	33
67	216
68	40
69	202
70	36
73	29
77	58
79	91
81	86
82	97
83	809
84	83
91	54
93	108
94	44
95	64
96	81
97	251
107	142
108	95
109	926
110	112
111	37
121	118
122	60
123	51
124	145
125	284
126	28
134	323
135	94
136	285
137	71
139	67
142	45
149	34
151	49
152	141
153	334
154	49
162	16
169	43
170	25
180	30
181	99
182	16
191	46
193	50
199	47
206	150
207	73
208	157
209	34
224	52
253	358
254	61
340	6
377	6
379	5
389	9
404	119
405	30
406	15
407	5
422	186
423	44
424	8
432	90
433	25
434	4
450	8
451	9
452	0
