Mass Spectrum: Pentanoic acid, 2,4-dimethyl-3-oxo-, methyl ester
Formula: C8H14O3
CAS: 59742-51-7
Molecular weight: 158
m/z	intensity
26	13
27	99
28	17
29	96
31	13
39	42
40	7
41	119
42	24
43	999
44	22
45	6
53	5
55	43
56	55
57	219
58	18
59	103
60	5
67	3
69	8
70	24
71	434
72	30
73	7
83	19
85	55
86	12
87	63
88	83
89	8
99	10
100	11
101	4
102	13
103	3
113	11
114	8
115	72
116	4
126	4
127	23
128	6
141	4
142	3
143	6
158	20
159	2
