Mass Spectrum: Atis-15-ene, (5.beta.,8.alpha.,9.beta.,10.alpha.,12.alpha.)-
Formula: C20H32
CAS: 5975-29-1
Molecular weight: 272
m/z	intensity
51	50
52	50
53	130
54	30
55	445
56	85
57	150
58	10
59	50
60	10
63	20
64	25
65	65
66	50
67	295
68	70
69	490
70	80
71	80
73	130
74	40
75	50
77	190
78	105
79	395
80	645
81	999
82	150
83	180
84	30
85	25
86	20
87	20
88	20
91	580
92	150
93	310
94	380
95	360
96	95
97	105
98	10
99	10
100	30
103	65
105	67
106	970
107	325
108	340
109	200
110	30
111	65
112	20
115	50
116	20
117	80
118	190
119	500
120	480
121	130
122	80
123	190
124	70
125	120
127	20
128	40
129	50
131	130
132	50
133	130
134	330
135	150
136	200
137	530
138	80
139	40
141	50
142	10
143	70
144	20
145	120
146	60
147	240
148	120
149	180
150	40
151	20
153	10
154	20
155	20
157	20
158	15
159	80
160	20
161	60
162	20
163	360
164	60
165	40
168	20
173	40
174	25
175	100
176	50
177	115
178	65
179	30
185	30
187	75
188	35
189	10
190	115
191	130
192	65
201	30
202	20
203	30
205	75
207	160
208	20
221	20
229	50
230	30
244	520
245	140
246	20
257	390
258	110
272	250
273	80
274	10
