Mass Spectrum: 4(1H)-Pyrimidinone, 2-amino-1-[2,3-O-(1-methylethylidene)-.beta.-d-ribofuranosyl]-
Formula: C12H17N3O5
CAS: 5975-05-3
Molecular weight: 283
m/z	intensity
25	33
26	100
27	132
29	139
31	184
39	124
40	115
41	324
42	169
43	999
44	80
45	40
52	17
53	52
54	63
55	173
56	62
57	288
58	65
59	855
60	50
61	17
67	68
68	511
69	418
70	273
71	239
72	24
73	109
80	16
81	29
82	46
83	155
84	121
85	289
86	113
87	20
89	20
94	32
95	102
96	72
97	68
98	49
100	22
101	46
108	20
109	12
110	20
111	780
112	681
113	126
114	117
115	140
116	12
122	10
123	9
124	47
125	15
126	30
127	14
128	15
129	46
135	11
136	141
137	45
138	33
139	22
140	99
141	20
142	34
143	9
148	24
149	12
150	40
151	34
152	19
156	9
157	40
158	12
161	17
162	19
166	30
167	14
168	29
169	173
170	17
172	19
173	65
178	67
179	20
180	53
182	14
194	140
195	38
207	17
208	23
209	8
225	78
226	13
238	16
251	19
253	27
265	15
266	29
268	39
269	9
283	29
284	16
