Mass Spectrum: Valeraldehyde, (o-nitrophenyl)hydrazone
Formula: C11H15N3O2
CAS: 5977-70-8
Molecular weight: 221
m/z	intensity
27	370
28	480
29	350
30	60
38	20
39	250
40	20
41	490
42	50
43	100
44	20
50	50
51	220
52	720
53	70
54	20
55	150
56	40
57	60
62	10
63	100
64	120
65	290
66	30
67	30
68	10
69	120
75	10
76	80
77	999
78	310
79	170
80	40
82	10
84	20
89	10
90	90
91	180
92	160
93	70
94	10
103	40
104	210
105	70
106	40
107	150
108	30
115	20
116	10
117	30
118	40
119	40
120	40
121	30
122	20
130	20
131	50
132	50
133	10
134	20
135	170
136	50
138	120
139	10
144	10
145	30
146	10
147	10
148	50
149	10
151	40
158	20
159	10
161	250
162	30
170	10
178	40
179	80
186	30
221	750
222	100
223	8
