Mass Spectrum: Thiophene, 3-methyl-2-nonadecyl-
Formula: C24H44S
CAS: 59782-60-4
Molecular weight: 364
m/z	intensity
25	1
26	3
27	13
28	10
29	28
30	1
39	7
40	7
41	45
42	10
43	72
44	8
45	9
47	1
51	1
53	7
54	4
55	42
56	10
57	37
58	2
59	2
60	4
61	1
65	3
66	1
67	9
68	4
69	20
70	5
71	10
72	1
73	6
74	1
75	1
77	5
78	2
79	4
80	1
81	7
82	3
83	8
84	3
85	6
86	1
87	1
91	3
93	2
94	1
95	4
96	3
97	17
98	19
99	15
100	2
101	1
103	1
104	1
105	1
106	1
107	1
109	33
110	7
111	999
112	61
113	30
114	4
115	1
117	1
119	1
123	4
124	9
125	27
126	4
127	1
128	1
129	1
135	1
137	4
138	1
139	1
149	1
150	1
151	1
153	1
167	1
168	1
169	2
171	1
349	2
350	1
363	1
364	292
365	28
366	11
367	2
