Mass Spectrum: Thiophene, 2-tridecyl-
Formula: C17H30S
CAS: 59782-29-5
Molecular weight: 266
m/z	intensity
26	1
27	33
28	16
29	130
30	1
32	1
38	1
39	28
40	3
41	196
42	13
43	178
44	9
45	34
46	1
47	3
50	1
51	4
52	1
53	21
54	4
55	43
56	8
57	33
58	5
59	3
60	1
63	1
65	7
66	3
67	11
68	1
69	13
70	3
71	9
73	2
77	7
78	3
79	6
80	1
81	4
82	2
83	3
84	28
85	31
86	5
87	6
91	4
92	1
93	2
94	1
95	3
96	1
97	999
98	488
99	56
100	26
101	3
105	2
107	1
108	1
109	3
110	26
111	206
112	14
113	11
114	2
119	2
120	1
121	1
123	9
124	2
125	5
126	2
127	1
133	1
134	1
135	1
137	1
139	15
140	4
141	3
153	7
154	2
155	2
156	1
167	5
168	2
169	1
170	1
171	1
181	2
182	1
183	1
185	1
195	2
209	2
210	1
211	1
219	1
223	5
224	2
225	1
233	2
237	2
238	3
239	1
251	1
265	2
266	264
267	26
268	8
269	1
