Mass Spectrum: Thiophene, 3-methyl-2-tridecyl-
Formula: C18H32S
CAS: 59782-57-9
Molecular weight: 280
m/z	intensity
25	2
26	8
27	29
28	28
29	44
30	8
36	1
37	2
38	2
39	23
40	6
41	79
42	16
43	72
44	6
45	18
46	2
47	3
48	1
49	2
50	3
51	5
52	2
53	15
54	6
55	42
56	12
57	23
58	4
59	3
60	2
61	2
62	1
63	3
65	5
66	2
67	16
68	4
69	28
70	5
71	6
72	2
73	4
74	2
75	3
76	2
77	16
78	7
79	7
80	2
81	7
82	3
83	4
84	3
85	7
86	1
87	2
88	1
89	1
91	8
92	3
93	4
94	1
95	3
96	1
97	31
98	29
99	23
100	6
101	3
105	3
106	1
109	3
110	12
111	999
112	125
113	57
114	7
115	3
116	2
117	2
119	7
120	1
121	2
122	2
123	12
124	19
125	57
126	9
127	6
128	2
129	1
131	6
132	2
133	1
134	1
135	2
137	10
138	3
139	3
143	2
147	2
148	1
149	6
150	1
151	2
152	1
153	3
154	2
155	2
167	3
169	7
181	3
182	1
183	3
184	1
185	2
219	2
223	2
237	1
238	1
243	1
264	2
265	5
266	1
279	2
280	134
281	31
282	10
283	2
