Mass Spectrum: Thiophene, 2-nonadecyl-
Formula: C23H42S
CAS: 59782-32-0
Molecular weight: 350
m/z	intensity
26	1
27	21
28	26
29	45
31	2
38	3
39	20
40	4
41	111
42	13
43	177
44	18
45	15
46	3
47	3
48	5
49	2
50	2
53	15
54	8
55	84
56	17
57	88
58	7
59	3
60	8
62	3
64	2
65	5
66	2
67	17
68	7
69	55
70	15
71	30
72	2
73	6
74	3
76	2
77	10
78	2
79	12
80	6
81	17
82	5
83	20
84	29
85	37
86	8
87	12
88	2
91	8
92	5
93	3
94	3
95	17
96	6
97	999
98	438
99	84
100	57
101	8
102	5
103	4
104	6
105	8
106	2
107	3
108	3
109	9
110	39
111	180
112	21
113	19
114	6
115	5
116	3
117	5
118	3
119	5
120	5
121	6
122	3
123	16
124	6
125	10
126	4
127	5
128	4
130	2
134	3
135	4
136	5
137	10
138	3
139	25
140	7
141	7
142	7
143	7
144	4
145	2
149	15
150	3
151	2
153	10
154	5
155	26
156	16
157	5
158	4
159	5
166	3
168	8
169	4
170	15
171	7
172	5
173	3
174	2
176	4
181	2
182	4
183	3
184	1
185	3
186	3
195	3
196	3
197	2
198	2
199	2
200	3
211	7
212	2
213	3
223	3
224	3
225	2
226	3
233	3
235	3
239	5
241	5
246	3
249	3
255	5
256	2
257	2
258	3
259	3
264	2
265	3
266	4
270	4
271	3
272	3
273	2
274	1
280	3
281	3
282	2
283	3
284	3
296	3
297	6
298	5
299	3
300	2
301	3
305	9
306	4
309	10
310	5
311	5
315	5
316	3
317	3
318	2
319	7
320	2
323	7
324	7
325	4
326	3
327	5
344	4
349	17
350	750
351	188
352	56
353	12
