Mass Spectrum: 1,7-Octadien-3-ol, 3,7-dimethyl-
Formula: C10H18O
CAS: 598-07-2
Molecular weight: 154
m/z	intensity
27	481
28	18
29	248
30	6
31	5
33	0
34	0
35	0
36	0
37	8
38	28
39	449
40	95
41	571
42	49
43	95
44	3
45	8
46	0
47	0
48	0
49	3
50	40
51	98
52	52
53	412
54	37
55	180
56	42
57	8
58	7
59	3
61	2
62	8
63	30
64	6
65	95
66	69
67	259
68	460
69	98
70	9
71	150
72	9
73	2
74	3
75	7
76	3
77	163
78	44
79	477
80	158
81	999
82	74
83	8
84	7
85	2
86	1
87	1
88	0
89	4
90	2
91	106
92	65
93	367
94	125
95	56
96	11
97	3
98	1
99	0
101	0
102	1
103	8
104	3
105	37
106	12
107	194
108	98
109	20
110	2
111	5
112	0
113	0
115	4
116	1
117	2
118	1
119	8
120	1
121	274
122	26
123	3
126	1
127	1
128	0
131	0
132	0
133	1
134	0
135	4
136	119
137	14
138	1
139	4
140	0
145	0
149	0
154	0
