Mass Spectrum: 1-Butyne, 3-methyl-
Formula: C5H8
CAS: 598-23-2
Molecular weight: 68
m/z	intensity
13	4
14	10
15	31
16	2
17	0
18	0
24	2
25	10
26	39
27	253
28	29
31	10
36	8
37	43
38	64
39	185
40	117
41	107
42	34
43	2
44	2
48	7
49	41
50	188
51	220
52	106
53	784
54	34
60	8
61	21
62	28
63	29
64	7
65	67
66	7
67	999
68	78
