Mass Spectrum: Lochneridine
Formula: C20H24N2O3
CAS: 5980-01-8
Molecular weight: 340
m/z	intensity
40	40
41	230
42	155
43	90
44	999
45	30
46	5
49	5
50	60
51	110
52	60
53	75
54	35
55	90
56	35
57	30
58	25
59	15
61	5
62	20
63	70
64	25
65	105
66	30
67	60
68	45
69	45
70	20
71	150
72	10
73	5
74	20
75	40
76	40
77	110
78	45
79	70
80	45
81	35
82	60
83	15
84	160
85	15
86	5
87	15
88	20
89	40
90	25
91	35
92	225
93	70
94	55
95	145
96	40
97	25
98	30
99	10
100	5
101	30
102	40
103	35
104	25
105	15
106	125
107	255
108	100
109	20
110	45
111	15
113	15
114	20
115	115
116	50
117	40
118	15
119	5
120	10
121	140
122	155
123	385
124	75
125	15
126	30
127	55
128	80
129	45
130	50
131	25
132	15
133	20
134	15
135	180
136	20
137	5
138	10
139	30
140	50
141	30
142	30
143	70
144	60
145	15
146	5
149	10
150	10
151	15
152	35
153	30
154	95
155	55
156	205
157	135
158	110
159	100
162	10
163	5
164	10
165	30
166	40
167	150
168	190
169	95
170	55
171	15
177	10
178	25
179	30
180	160
181	125
182	180
183	70
184	30
185	10
190	10
191	25
192	40
193	80
194	130
195	80
196	45
197	45
198	15
199	5
201	10
202	35
203	15
204	30
205	45
206	80
207	130
208	125
209	75
210	70
211	25
212	10
213	5
214	25
215	75
216	25
217	15
218	25
219	45
220	35
221	90
222	65
223	115
224	90
225	45
226	20
227	5
228	10
229	40
230	15
231	10
232	15
233	35
234	25
235	140
236	55
237	60
238	25
239	15
240	10
241	5
243	5
245	5
247	25
248	15
249	80
250	25
251	35
252	15
253	20
254	10
255	5
260	5
261	25
262	55
263	165
264	425
265	155
266	185
267	60
268	15
269	5
277	5
278	10
279	35
280	20
281	20
282	10
283	5
291	10
292	5
293	5
294	5
309	5
320	5
322	25
323	10
324	15
325	5
340	60
341	15
