Mass Spectrum: Selenium, difluorobis(pentafluoroethyl)-
Formula: C4F12Se
CAS: 59802-62-9
Molecular weight: 356
m/z	intensity
31	230
50	61
69	999
80	57
100	40
111	192
119	718
130	110
161	56
180	201
199	51
218	16
237	15
249	12
299	10
318	40
337	11
