Mass Spectrum: 4,8,12-Tetradecatrienenitrile, 5,9,13-trimethyl-
Formula: C17H27N
CAS: 5981-31-7
Molecular weight: 245
m/z	intensity
25	0
26	1
27	51
29	50
30	6
36	0
38	1
39	48
40	15
41	433
42	26
43	31
44	1
45	0
50	1
51	6
52	5
53	70
54	12
55	66
56	8
57	14
58	2
59	0
60	0
63	0
64	0
65	15
66	9
67	105
68	75
69	999
70	51
71	3
72	1
73	0
75	0
77	21
78	4
79	40
80	38
81	324
82	34
83	4
84	0
89	0
90	0
91	26
92	6
93	63
94	14
95	59
96	10
97	3
98	0
102	0
103	1
104	0
105	12
106	4
107	21
108	33
109	29
110	2
111	0
112	0
115	0
117	4
118	0
119	8
120	13
121	42
122	14
123	78
124	49
125	4
126	0
127	0
128	0
129	0
130	0
131	3
132	2
133	22
134	54
135	44
136	154
137	91
138	8
139	0
143	0
144	1
145	1
146	8
147	7
148	13
149	6
150	0
152	0
157	1
158	0
159	13
160	8
161	9
162	6
163	1
164	0
173	0
174	7
175	2
176	30
177	6
178	0
179	0
185	2
186	0
188	2
189	6
190	1
191	1
193	0
201	0
202	39
203	7
204	1
213	0
216	0
230	7
231	2
245	55
246	9
247	0
