Mass Spectrum: l-Methionine, N-[(dimethylamino)methylene]-, methyl ester
Formula: C9H18N2O2S
CAS: 59824-42-9
Molecular weight: 218
m/z	intensity
27	114
28	97
29	33
30	49
35	59
39	101
40	46
41	209
42	782
43	65
44	968
45	112
46	67
47	70
48	20
49	14
53	12
54	97
55	49
56	92
57	305
58	62
59	67
61	837
62	29
63	39
67	20
68	61
69	32
70	71
71	102
72	70
73	38
74	19
75	33
83	112
84	492
85	144
86	12
87	58
89	13
97	364
98	63
99	161
100	22
104	45
111	999
112	571
113	40
114	17
115	43
117	21
128	61
129	23
131	12
141	16
143	399
144	441
145	34
149	13
155	11
157	811
158	70
159	437
160	41
161	21
171	18
174	27
186	33
203	76
218	135
219	15
