Mass Spectrum: Cyclopropanecarboxylic acid, 3-(dimethoxymethyl)-2,2-dimethyl-, methyl ester, trans-(.+/-.)-
Formula: C10H18O4
CAS: 59829-77-5
Molecular weight: 202
m/z	intensity
15	34
18	1
26	2
27	28
28	7
29	26
30	2
31	33
32	2
33	3
38	2
39	46
40	9
41	107
42	9
43	50
44	3
45	42
46	1
47	133
48	3
50	2
51	7
52	4
53	36
54	6
55	48
56	7
57	5
58	11
59	43
60	1
61	1
63	1
65	9
66	4
67	69
68	9
69	26
70	3
71	20
72	2
73	552
74	26
75	999
76	34
77	22
78	5
79	118
80	13
81	57
82	9
83	17
84	2
85	16
86	15
87	2
88	57
89	3
91	1
93	4
94	1
95	146
96	22
97	31
98	5
99	15
100	1
101	45
102	3
103	1
105	1
106	2
107	98
108	8
109	9
110	7
111	173
112	28
113	7
114	1
115	9
118	1
123	6
124	2
125	13
126	2
127	522
128	42
129	71
130	19
131	3
137	1
138	15
139	139
140	13
141	7
142	3
143	9
144	1
155	8
156	1
157	1
160	2
169	1
170	4
171	47
172	5
173	2
201	2
