Mass Spectrum: L-Citrulline, N,N'-bis(dimethylaminomethylene)-, methyl ester
Formula: C13H25N5O3
CAS: 59824-38-3
Molecular weight: 299
m/z	intensity
15	16
16	1
18	5
19	1
26	2
27	12
28	54
29	17
30	28
31	11
32	4
34	1
36	1
38	2
39	12
40	10
41	38
42	155
43	45
44	268
45	23
46	38
47	2
50	1
51	2
52	2
53	10
54	16
55	31
56	70
57	53
58	14
59	15
60	1
62	1
63	1
65	1
66	2
67	12
68	32
69	20
70	46
71	30
72	72
73	187
74	19
75	1
76	1
77	1
78	5
79	2
80	13
81	4
82	14
83	31
84	31
85	22
86	3
87	1
88	2
92	1
93	2
94	2
95	6
96	9
97	30
98	33
99	999
100	55
101	6
105	1
106	1
107	1
108	2
109	3
110	4
111	20
112	37
113	9
114	3
115	8
116	2
120	2
121	1
122	1
123	4
124	6
125	21
126	8
127	4
128	127
129	12
130	9
131	1
134	1
136	1
137	1
138	5
139	28
140	20
141	8
142	2
143	79
144	27
145	3
149	1
152	2
153	1
154	1
155	5
156	5
157	34
158	5
166	3
167	3
168	90
169	17
170	2
171	5
172	28
173	3
179	1
181	1
182	2
183	5
184	12
185	6
186	1
191	1
195	4
196	1
197	1
198	1
199	42
200	6
210	1
212	1
225	2
226	1
227	27
228	14
229	2
240	1
255	8
256	1
299	4
