Mass Spectrum: N-Methyl-N-phenyl-N'-(3-methoxyphenyl)-urea
Formula: C15H16N2O2
CAS: 59849-56-8
Molecular weight: 256
m/z	intensity
77	199
78	80
79	79
91	70
106	679
107	999
108	109
119	110
134	241
135	49
149	240
150	50
256	471
257	120
