Mass Spectrum: 1,7-Octadiene, 2,7-dimethyl-
Formula: C10H18
CAS: 59840-10-7
Molecular weight: 138
m/z	intensity
24	0
25	3
26	11
27	215
28	144
29	280
30	5
31	18
32	22
37	9
38	10
39	286
40	62
41	691
42	72
43	76
44	1
45	4
47	0
50	6
51	23
52	11
53	138
54	78
55	544
56	176
57	60
58	3
59	5
63	5
64	1
65	25
66	39
67	999
68	445
69	356
70	78
71	4
74	2
75	0
77	19
78	2
79	41
80	12
81	206
82	707
83	64
84	2
91	4
93	7
94	12
95	244
96	36
97	4
109	13
110	75
111	6
123	18
124	0
