Mass Spectrum: erythro-7,8-Dichlorodisparlure
Formula: C19H38Cl2
CAS: 59840-25-4
Molecular weight: 336
m/z	intensity
41	362
43	999
44	24
51	4
53	40
55	353
56	192
57	325
58	11
59	8
63	7
65	13
67	123
68	12
69	308
70	62
71	81
72	4
75	14
77	18
79	40
80	4
81	118
82	204
83	142
84	35
85	45
87	4
88	5
89	6
91	20
93	18
95	109
96	126
97	109
98	17
99	13
103	4
105	7
107	7
109	104
110	93
111	75
112	12
113	4
115	4
119	5
121	7
122	4
123	49
124	53
125	29
126	5
127	4
131	6
133	5
135	5
137	29
138	32
139	15
145	5
147	4
151	20
152	31
153	15
155	10
165	22
166	27
167	5
169	4
179	13
180	25
181	4
182	6
187	4
193	5
194	14
196	15
207	10
208	52
209	6
220	4
221	25
222	10
249	21
261	6
263	9
264	72
265	18
297	6
300	18
302	4
