Mass Spectrum: N-Methyl-N-phenyl-N'-(2-methoxyphenyl)-urea
Formula: C15H16N2O2
CAS: 59849-57-9
Molecular weight: 256
m/z	intensity
63	50
64	49
65	78
76	181
77	179
78	158
104	70
105	80
106	999
107	819
108	119
119	320
120	80
149	350
150	119
225	99
256	179
