Mass Spectrum: 3-(3-Nitrophenyl)-1H-pyrazole
Formula: C9H7N3O2
CAS: 59843-77-5
Molecular weight: 189
m/z	intensity
30	216
37	112
38	205
39	351
40	171
41	92
42	36
43	18
44	11
46	169
49	50
50	411
51	256
52	92
53	19
54	2
55	5
57	20
60	15
61	114
62	306
63	545
64	110
65	90
66	46
67	15
68	2
71	11
72	10
73	46
74	227
75	234
76	188
77	191
78	32
79	2
81	6
84	10
85	47
86	116
87	150
88	181
89	999
90	168
91	16
92	28
93	7
94	9
97	4
98	13
99	16
100	9
101	6
102	45
103	40
104	23
105	15
109	10
110	16
111	10
113	71
114	137
115	116
116	866
117	158
118	7
119	2
123	3
130	2
131	178
132	18
142	146
143	451
144	49
147	3
159	4
160	10
172	6
189	808
190	76
191	7
