Mass Spectrum: Urea, N'-(4-methoxyphenyl)-N-methyl-N-phenyl-
Formula: C15H16N2O2
CAS: 59849-55-7
Molecular weight: 256
m/z	intensity
33	2
34	2
35	5
36	14
37	16
38	48
39	143
40	53
41	78
42	25
43	10
44	10
45	2
47	0
48	0
50	72
51	241
52	150
53	81
54	15
55	14
56	10
57	4
58	1
59	1
60	1
61	8
62	22
63	90
64	89
65	112
66	52
67	22
68	6
69	4
70	2
71	2
72	0
73	3
74	14
75	17
77	589
78	149
79	145
80	56
81	15
82	2
83	1
84	1
85	1
86	0
87	2
88	2
89	4
90	27
91	57
92	37
93	32
95	85
96	6
97	2
98	1
99	2
100	0
101	0
102	1
104	56
106	943
107	999
108	98
109	5
110	1
111	4
112	5
113	2
114	2
115	1
116	0
117	1
118	4
119	46
120	9
121	37
122	158
123	25
124	10
125	1
126	0
127	3
128	1
129	0
130	0
132	7
134	461
135	40
136	3
137	0
138	0
139	1
140	5
141	2
142	2
143	0
144	0
146	1
147	9
149	80
150	9
151	1
152	0
153	1
154	2
155	1
156	0
157	0
158	0
160	0
161	0
162	1
163	1
164	1
166	0
167	2
168	6
169	9
170	2
171	3
172	0
179	0
180	0
181	1
182	2
183	2
184	2
185	0
186	0
193	0
195	1
196	2
197	2
198	1
199	1
200	0
201	1
203	1
204	0
205	0
207	0
209	0
210	0
211	0
212	1
221	0
223	0
224	0
225	2
226	0
229	0
239	1
240	5
241	0
252	3
253	8
254	8
256	447
257	66
258	7
259	0
