Mass Spectrum: .beta.-d-Ribopyranoside, methyl, 3-acetate
Formula: C8H14O6
CAS: 5987-62-2
Molecular weight: 206
m/z	intensity
26	8
27	50
28	23
29	114
30	13
31	132
32	5
33	45
37	0
38	2
39	25
40	11
41	77
42	43
43	999
44	73
45	79
46	2
47	4
50	1
51	1
52	0
53	2
54	4
55	17
56	8
57	76
58	52
59	31
60	102
61	128
62	3
63	0
65	0
66	0
67	0
68	34
69	143
70	9
71	68
72	6
73	125
74	134
75	21
76	1
77	0
81	1
83	3
84	1
85	23
86	112
87	104
88	6
89	2
91	0
96	1
97	8
98	2
99	10
100	19
101	3
102	21
103	17
104	1
105	0
111	1
112	1
113	4
114	124
115	28
116	14
117	3
121	0
124	0
125	0
127	0
128	2
129	8
130	0
132	1
133	2
134	1
145	3
146	3
147	0
148	0
149	1
154	0
155	1
156	0
157	4
167	0
174	0
175	15
176	1
