Mass Spectrum: Methyl-2,4-di-O-methyl.beta.l-arabinopyranoside
Formula: C8H16O5
CAS: 5987-64-4
Molecular weight: 192
m/z	intensity
45	281
57	46
58	164
59	155
61	30
69	27
71	42
73	46
74	999
85	34
87	155
88	57
101	925
115	17
143	3
161	15
162	9
