Mass Spectrum: 2-Thiophenecarboxamide, N-[5-(2-methylpropyl)-1,3,4-thiadiazol-2-yl]-
Formula: C11H13N3OS2
CAS: 59898-96-3
Molecular weight: 267
m/z	intensity
26	3
27	16
28	2
29	5
38	4
39	82
40	5
41	29
42	5
43	30
44	4
45	13
53	3
55	4
57	11
58	13
59	14
60	3
69	5
71	5
81	3
82	8
83	46
84	10
85	5
86	2
97	6
101	5
109	3
110	4
111	999
112	58
113	45
114	3
115	7
141	3
145	3
153	11
180	5
184	13
224	3
225	398
226	46
227	38
228	3
234	3
239	34
240	4
241	3
252	42
253	8
254	4
266	120
267	60
268	20
269	6
