Mass Spectrum: p-Toluenesulfonic acid n-propyl ester
Formula: C10H14O3S
CAS: 599-91-7
Molecular weight: 214
m/z	intensity
14	1
15	6
17	1
18	3
26	7
27	66
28	15
29	27
30	3
31	7
32	3
37	3
38	11
39	103
40	11
41	76
42	32
43	51
44	3
45	4
48	2
49	2
50	24
51	44
52	21
53	9
54	1
55	2
57	2
58	1
59	5
61	3
62	14
63	52
64	15
65	221
66	15
67	3
69	4
71	1
73	1
74	5
75	6
76	5
77	43
78	60
79	44
80	10
81	2
85	1
86	3
87	3
88	1
89	58
90	50
91	999
92	159
93	13
94	1
95	1
99	1
103	1
105	4
106	2
107	117
108	97
109	9
111	2
117	1
121	2
122	1
123	1
124	2
131	1
132	7
133	2
137	1
138	1
139	13
140	2
141	2
149	1
154	2
155	835
156	83
157	44
158	4
159	1
170	1
171	6
172	370
173	243
174	39
175	14
176	1
184	2
185	13
186	2
187	1
212	1
214	146
215	18
216	9
217	1
