Mass Spectrum: 3-Hexanone, 2,5-dimethyl-4-nitro-
Formula: C8H15NO3
CAS: 59906-54-6
Molecular weight: 173
m/z	intensity
26	6
27	129
28	27
29	51
30	26
31	5
35	0
36	0
37	2
38	6
39	109
40	20
41	253
42	39
43	999
44	47
45	10
46	8
47	0
48	1
50	2
51	7
52	2
53	16
54	5
55	59
56	221
57	42
58	4
59	10
60	4
61	0
62	1
63	1
64	0
65	3
66	1
67	8
68	5
69	75
70	22
71	658
72	36
73	10
74	4
75	1
76	1
77	5
78	1
79	3
80	0
81	6
82	2
83	27
84	13
85	8
86	8
87	6
88	15
89	2
90	0
91	5
92	1
93	1
94	1
95	2
96	2
97	4
98	1
99	15
100	4
101	4
102	26
103	3
104	2
105	2
106	0
107	1
108	0
109	4
110	1
111	4
112	1
113	2
114	1
115	2
116	1
117	0
118	0
119	0
120	0
121	0
122	0
123	1
124	0
125	1
126	1
127	2
128	2
129	1
130	2
131	2
171	0
172	0
173	0
