Mass Spectrum: 1-Butanone, 3-methyl-2-nitro-1-phenyl
Formula: C11H13NO3
CAS: 59906-55-7
Molecular weight: 207
m/z	intensity
26	1
27	20
28	5
29	12
30	3
38	3
39	25
41	26
42	3
43	9
44	1
46	1
50	21
51	79
52	6
53	5
55	12
56	3
57	5
62	2
63	5
64	2
65	5
66	1
67	1
68	2
69	14
70	2
71	1
72	1
73	4
74	6
75	6
76	15
77	405
78	26
79	3
81	1
83	8
84	1
89	3
91	12
92	2
93	1
94	10
95	1
99	2
102	5
103	2
104	3
105	999
106	115
107	6
115	7
116	2
117	3
120	5
121	3
122	3
123	1
127	3
128	4
129	2
131	4
133	5
135	1
136	19
137	1
141	1
143	1
144	1
145	10
146	3
147	5
148	1
159	5
160	2
161	26
162	4
165	13
166	1
