Mass Spectrum: 6'-Nitro-ortho-acetotoluidide
Formula: C9H10N2O3
CAS: 59907-22-1
Molecular weight: 194
m/z	intensity
20	2
26	6
27	47
28	42
29	14
30	19
31	2
32	0
37	4
38	18
39	109
40	32
41	23
42	34
43	999
44	26
45	4
46	0
49	0
50	41
51	144
52	114
53	51
54	16
55	8
56	1
57	4
58	0
59	1
60	0
61	2
62	13
63	50
64	38
65	77
66	40
67	15
68	3
69	3
70	1
71	2
72	0
73	2
74	6
75	16
76	41
77	290
78	119
79	180
80	28
81	3
82	1
83	1
84	1
85	1
86	1
87	2
88	4
89	18
90	25
91	61
92	22
93	18
94	118
95	9
96	1
97	1
99	1
100	0
101	1
102	13
103	29
104	152
105	118
106	271
107	43
108	6
109	1
110	1
111	0
113	0
114	0
115	0
116	81
117	62
118	13
119	6
120	3
121	2
122	69
123	6
124	1
125	0
126	0
127	0
128	1
130	1
131	1
132	3
133	5
134	155
135	116
136	22
137	3
145	3
146	9
147	19
148	127
149	14
150	1
151	16
152	686
153	63
154	5
155	0
162	1
163	0
164	1
165	2
168	1
176	94
177	14
178	2
179	4
180	0
181	0
188	2
194	114
195	12
196	1
225	0
226	0
230	0
264	2
