Mass Spectrum: 5-(3-Thienyl)-2H-1,2,3,4-tetrazole
Formula: C5H4N4S
CAS: 59918-86-4
Molecular weight: 152
m/z	intensity
33	133
34	7
36	19
37	103
38	84
39	178
40	157
41	9
42	7
43	24
45	999
47	41
49	50
50	132
51	54
52	42
53	29
55	11
56	16
57	78
58	75
59	9
60	12
61	25
62	51
64	46
65	13
66	9
68	58
69	106
70	331
71	61
72	18
73	5
75	2
77	6
79	57
81	36
82	53
83	22
84	9
85	4
92	13
93	50
94	10
95	36
97	459
98	23
99	17
109	134
110	40
111	6
124	976
126	35
127	0
150	1
152	335
153	20
154	13
