Mass Spectrum: Bicyclo[2.2.1]hept-2-ene, 5,6-bis(chloromethyl)-
Formula: C9H12Cl2
CAS: 5992-56-3
Molecular weight: 190
m/z	intensity
26	4
27	44
29	1
35	0
36	1
37	2
38	7
39	62
40	25
41	27
42	0
43	0
44	0
45	1
46	0
48	0
49	7
50	8
51	26
52	7
53	25
54	5
55	1
57	0
58	4
60	0
61	3
62	4
63	11
64	4
65	42
66	999
67	62
68	1
73	2
74	1
75	7
76	0
77	26
78	9
79	17
80	1
85	0
86	0
87	2
88	1
89	4
90	1
91	26
92	3
93	3
99	0
100	0
101	3
102	0
103	4
104	1
105	12
106	1
113	0
115	1
116	0
117	1
118	0
119	1
120	0
123	0
125	0
127	1
129	0
141	2
143	0
155	0
190	0
192	0
