Mass Spectrum: Bromoacetic acid, cyclopentyl ester
Formula: C7H11BrO2
CAS: 59956-72-8
Molecular weight: 206
m/z	intensity
25	3
26	32
27	107
28	18
29	85
30	4
31	12
35	7
36	44
37	9
38	21
39	185
40	44
41	382
42	181
43	132
44	45
45	9
49	7
50	40
51	56
52	92
53	64
54	8
55	56
56	14
57	141
58	32
59	2
60	4
61	5
62	4
63	7
64	2
65	26
66	29
67	395
68	999
69	903
70	49
71	12
73	2
74	1
75	4
76	3
77	10
78	21
79	163
80	11
81	12
82	3
83	11
84	10
85	165
86	82
87	4
91	5
92	6
93	108
94	12
95	104
96	7
97	1
99	4
105	7
109	4
113	24
114	1
120	28
121	258
122	33
123	249
124	5
127	67
128	4
135	4
136	3
137	4
138	7
139	8
140	4
141	8
149	1
151	1
163	2
164	2
165	2
166	2
