Mass Spectrum: Creatinine
Formula: C4H7N3O
CAS: 60-27-5
Molecular weight: 113
m/z	intensity
12	1
13	6
14	18
15	96
16	2
17	1
18	3
25	1
26	3
27	26
28	109
29	9
30	130
31	2
32	2
35	2
36	1
38	7
39	11
40	41
41	95
42	843
43	799
44	220
45	8
51	1
52	1
53	16
54	6
55	34
56	42
57	9
58	26
59	2
67	2
68	6
69	86
70	20
71	12
72	31
73	2
83	2
84	275
85	52
86	10
94	2
95	2
97	1
98	15
111	6
112	486
113	999
114	56
115	4
