Mass Spectrum: Ethyl ether
Formula: C4H10O
CAS: 60-29-7
Molecular weight: 74
m/z	intensity
13	1
14	7
15	31
18	4
19	9
25	1
26	30
27	193
28	50
29	426
30	12
31	999
32	10
33	2
39	2
41	60
42	11
43	82
44	19
45	445
46	10
47	3
57	3
58	2
59	670
60	21
61	1
72	1
73	46
74	439
75	20
