Mass Spectrum: N,N'-Hexamethylenebis-(trimethylammonium chloride
Formula: C12H30Cl2N2
CAS: 60-25-3
Molecular weight: 272
m/z	intensity
14	2
15	30
24	1
27	5
28	9
29	9
30	28
35	1
36	7
38	2
39	4
40	1
41	14
42	39
43	13
44	26
45	24
46	10
47	6
48	3
49	13
50	188
51	6
52	60
53	2
54	1
55	10
56	9
57	10
58	999
59	61
60	1
67	2
68	1
69	3
70	8
71	10
72	4
73	1
79	1
81	6
82	4
83	2
84	50
85	4
86	2
94	1
96	1
97	1
98	4
100	7
101	1
110	1
111	1
112	26
113	6
114	41
115	3
124	1
125	1
126	25
127	49
128	111
129	9
157	6
158	1
171	10
172	13
173	2
