Mass Spectrum: Acetamide
Formula: C2H5NO
CAS: 60-35-5
Molecular weight: 59
m/z	intensity
14	13
15	67
16	17
17	5
18	12
25	1
26	5
27	20
28	77
29	29
30	33
31	36
38	19
39	22
40	50
41	69
42	314
43	604
44	992
45	16
46	1
54	1
59	999
60	27
61	1
