Mass Spectrum: Hydrazine, methyl-
Formula: CH6N2
CAS: 60-34-4
Molecular weight: 46
m/z	intensity
27	63
28	726
29	215
30	188
31	632
35	0
36	4
38	1
39	2
40	8
41	9
42	42
43	77
44	46
45	709
46	999
47	26
48	0
