Mass Spectrum: Mecamylamine
Formula: C11H21N
CAS: 60-40-2
Molecular weight: 167
m/z	intensity
41	567
42	455
43	68
44	61
50	7
51	27
52	21
53	89
54	40
55	92
56	596
57	56
58	87
59	4
61	2
62	2
63	4
65	40
66	14
67	91
68	36
69	31
70	32
71	537
72	33
77	37
78	6
79	42
80	14
81	28
82	79
83	15
84	509
85	72
86	3
91	35
92	6
93	45
94	22
95	33
96	90
97	57
98	999
99	340
100	39
101	2
103	2
104	1
105	9
106	7
107	28
108	36
109	21
110	50
111	20
112	70
113	11
115	2
119	2
120	4
121	16
122	34
123	16
124	406
125	40
126	22
127	2
134	2
135	4
136	23
137	8
138	54
139	88
140	9
148	2
150	7
151	2
152	120
153	14
165	1
166	32
167	137
168	16
169	1
