Mass Spectrum: Dimethoate
Formula: C5H12NO3PS2
CAS: 60-51-5
Molecular weight: 229
m/z	intensity
15	88
17	0
18	10
26	2
28	85
29	35
30	57
31	31
32	15
33	3
35	1
39	1
40	2
41	9
42	86
43	30
44	55
45	79
46	55
47	167
48	18
49	8
50	3
51	2
52	1
54	8
55	22
56	66
57	1
58	159
59	6
60	9
61	8
62	48
63	156
64	31
65	9
66	2
71	4
72	21
73	32
74	4
76	22
77	14
78	13
79	140
80	11
81	2
82	1
87	999
88	76
89	49
90	4
93	535
94	31
95	32
96	19
97	2
98	2
101	1
102	1
104	48
105	17
106	4
107	1
108	7
109	25
110	13
111	21
112	2
119	6
120	10
121	1
122	2
125	454
126	66
127	34
128	5
134	3
140	5
141	5
142	17
143	89
144	5
145	4
154	1
155	6
156	17
157	34
158	18
159	19
160	2
161	1
166	13
167	2
168	1
170	13
171	19
172	13
173	2
174	9
176	1
181	1
182	5
184	1
196	1
197	3
198	11
199	5
200	1
229	76
230	6
231	8
