Mass Spectrum: Veratraman-3,23-diol, 14,15,16,17-tetradehydro-, (3.beta.,23.beta.)-
Formula: C27H39NO2
CAS: 60-70-8
Molecular weight: 409
m/z	intensity
41	30
43	16
44	11
45	1
47	14
48	6
49	4
50	2
53	2
55	15
56	7
57	19
58	6
59	0
65	1
67	8
68	5
69	7
70	8
71	4
72	8
73	0
77	4
78	2
79	8
80	2
81	6
83	54
84	8
85	46
87	6
91	10
92	1
93	3
94	3
95	2
96	11
97	3
98	12
99	1
100	1
103	0
104	0
105	8
106	1
107	3
108	0
109	1
110	1
112	5
113	2
114	999
115	75
116	5
117	5
119	5
120	3
121	1
123	0
124	2
125	0
127	1
128	6
129	5
130	1
131	5
132	1
133	3
135	0
141	5
142	5
143	7
144	2
145	3
146	0
149	1
152	1
153	3
154	3
155	6
156	3
157	6
158	2
159	1
160	0
165	4
166	1
167	3
168	3
169	5
170	3
171	3
172	1
178	2
179	2
180	1
181	3
182	2
183	3
184	2
185	1
189	0
191	1
192	1
193	3
194	1
195	2
196	1
197	1
198	0
203	1
205	2
206	1
207	2
208	1
209	1
210	0
215	0
218	0
219	1
220	1
221	1
222	0
223	2
233	1
234	0
235	0
236	0
238	0
247	1
250	0
262	0
281	0
295	7
296	2
324	0
393	0
407	0
408	2
409	5
410	3
411	1
