Mass Spectrum: Phlorizin
Formula: C21H24O10
CAS: 60-81-1
Molecular weight: 436
m/z	intensity
41	193
42	298
43	717
44	496
45	499
46	125
47	83
48	3
49	6
50	40
51	104
52	35
53	71
54	33
55	224
56	212
57	485
58	75
59	54
60	867
61	188
62	22
63	29
64	14
65	56
66	23
67	30
68	23
69	321
70	153
71	150
72	100
73	479
74	111
75	19
76	11
77	146
78	38
79	25
80	24
81	31
82	13
83	23
84	25
85	131
86	30
87	88
88	18
89	43
90	18
91	84
92	11
93	15
94	45
95	23
96	16
97	118
98	100
99	32
100	11
101	35
102	66
103	44
104	9
105	15
106	7
107	999
108	82
109	16
110	10
111	24
112	5
113	25
114	32
115	46
116	14
117	4
118	5
119	34
120	463
121	91
122	12
123	20
124	19
125	7
126	170
127	38
128	26
129	14
130	7
131	19
132	9
133	15
134	4
135	6
136	5
137	14
138	9
139	38
140	5
141	2
142	6
143	11
144	72
145	19
146	8
147	21
148	9
149	31
150	63
151	13
152	7
153	544
154	42
155	8
157	5
160	1
161	5
162	8
163	36
164	37
165	14
166	96
167	14
168	43
169	9
171	3
173	5
174	10
175	2
176	3
177	128
178	19
179	20
180	10
181	11
182	4
185	2
186	1
187	7
189	13
190	4
191	3
192	86
193	12
194	2
195	3
201	1
202	1
203	5
204	3
205	6
206	28
207	8
208	2
213	7
216	2
218	1
219	9
220	1
221	3
228	1
229	3
230	31
231	9
232	2
234	1
239	11
255	78
256	59
257	31
258	7
263	2
271	2
272	5
273	2
274	240
275	42
276	8
279	17
280	11
281	7
298	114
299	23
300	4
310	4
312	2
322	1
324	1
328	4
340	6
401	5
418	1
