Mass Spectrum: 1H-Pyrrole, 2,3-dimethyl-
Formula: C6H9N
CAS: 600-28-2
Molecular weight: 95
m/z	intensity
24	1
26	8
27	49
28	7
38	9
39	55
40	18
41	53
42	53
45	2
46	3
47	46
48	4
50	22
51	39
52	29
53	67
54	10
55	2
56	3
60	1
62	4
63	8
65	27
66	18
67	53
68	8
74	2
75	2
77	13
78	23
80	212
81	10
88	2
92	16
93	77
94	999
95	902
96	29
98	2
