Mass Spectrum: Monomethyl oxalate
Formula: C3H4O4
CAS: 600-23-7
Molecular weight: 104
m/z	intensity
28	112
29	344
30	63
31	443
32	66
33	2
40	1
42	3
43	40
44	222
45	999
46	23
47	5
56	24
59	394
60	200
61	6
62	1
104	3
