Mass Spectrum: Pregnan-20-one, 3,11-dihydroxy-, (3.alpha.,5.beta.,11.alpha.)-
Formula: C21H34O3
CAS: 600-52-2
Molecular weight: 334
m/z	intensity
41	246
43	999
44	22
53	45
55	141
57	65
67	196
68	25
69	110
70	17
71	151
77	93
78	93
79	201
80	37
81	350
82	27
83	68
84	68
85	151
91	171
92	40
93	249
94	136
95	267
96	65
97	57
98	30
105	206
106	319
107	287
108	131
109	146
110	47
111	30
117	42
118	40
119	125
120	136
121	115
122	60
123	50
124	952
125	123
129	20
130	10
131	103
132	103
133	133
134	40
135	88
136	32
137	45
138	20
144	32
145	103
146	47
147	183
148	40
149	113
150	15
157	40
158	17
159	93
160	32
161	105
162	30
163	50
164	10
170	10
171	32
172	40
173	70
174	17
175	60
176	12
177	20
178	10
179	10
190	95
191	30
192	20
193	70
194	10
199	20
201	10
202	20
203	30
204	47
205	20
206	20
207	10
213	125
214	32
215	22
216	20
227	35
228	50
229	20
230	5
231	15
240	32
241	22
243	15
244	35
245	10
246	32
255	156
256	30
257	22
258	15
264	10
265	32
273	32
280	17
281	20
283	156
284	20
298	309
299	68
301	70
302	12
316	602
317	125
318	17
334	45
335	15
