Mass Spectrum: Butanoic acid, 2,3-dichloro-
Formula: C4H6Cl2O2
CAS: 600-32-8
Molecular weight: 156
m/z	intensity
12	8
13	2
14	6
15	16
16	22
17	2
18	10
19	2
22	9
24	1
25	8
26	34
27	111
28	119
29	28
31	2
32	17
35	73
36	676
37	96
38	278
39	590
40	172
41	999
42	37
43	24
44	883
45	51
46	5
47	19
48	20
49	84
50	11
51	28
52	2
53	7
54	1
55	12
56	2
57	10
59	1
60	14
61	44
62	10
63	154
64	9
65	51
66	4
67	7
68	9
69	9
71	7
72	8
73	27
74	13
75	137
76	664
77	71
78	217
79	14
80	17
81	40
82	10
83	8
84	2
85	56
86	9
87	2
89	14
90	6
91	35
92	31
93	5
94	385
95	11
96	127
97	10
98	5
99	4
102	12
103	11
104	26
105	18
106	4
107	12
108	19
109	11
110	4
111	7
112	2
113	4
115	5
116	2
117	6
118	8
119	2
120	43
121	107
122	19
123	35
124	2
141	2
143	1
