Mass Spectrum: Propanedioic acid, (bromomethyl)methyl-, bis(5,6-dioxoheptyl) ester
Formula: C19H27BrO8
CAS: 60004-37-7
Molecular weight: 462
m/z	intensity
43	999
55	270
69	530
101	130
126	60
127	970
128	160
147	70
149	60
151	50
152	50
319	30
321	30
402	10
404	10
419	30
421	30
444	10
446	10
462	10
464	10
