Mass Spectrum: DL-Lysine, 5-hydroxy-
Formula: C6H14N2O3
CAS: 6000-08-4
Molecular weight: 162
m/z	intensity
14	3
15	39
16	11
17	61
18	291
19	8
26	9
27	59
28	257
29	68
30	999
31	66
32	26
39	49
40	10
41	172
42	162
43	519
44	138
45	45
46	19
47	3
49	2
50	4
51	7
52	9
53	21
54	40
55	70
56	515
57	93
58	123
59	35
60	89
61	6
62	3
63	1
64	1
65	5
66	4
67	16
68	195
69	209
70	89
71	149
72	39
73	73
74	61
75	69
76	4
77	3
78	3
79	7
80	30
81	47
82	110
83	71
84	14
85	6
86	113
87	114
88	381
89	196
90	9
91	2
92	1
93	2
94	3
95	3
96	39
97	25
98	20
99	27
100	283
101	19
102	4
103	11
104	2
105	4
106	2
107	2
108	8
109	67
110	8
111	3
112	2
113	2
114	279
115	98
116	13
117	16
118	1
121	1
122	1
123	1
124	2
125	2
126	50
127	44
128	6
129	2
132	134
133	190
134	12
135	2
139	1
140	1
141	1
142	2
143	5
144	4
145	6
146	2
162	2
163	1
