Mass Spectrum: Propanedioic acid, (bromomethyl)methyl-, di-5-heptynyl ester
Formula: C19H27BrO4
CAS: 60004-36-6
Molecular weight: 398
m/z	intensity
41	620
53	350
55	310
66	480
67	460
68	150
69	460
70	60
77	200
78	40
79	999
80	110
93	220
94	600
95	480
138	120
139	470
140	60
145	70
147	130
148	60
159	60
161	70
173	60
193	60
195	50
205	40
221	90
223	80
239	35
241	40
398	10
400	10
