Mass Spectrum: Methyl trans-4-bromocrotonate
Formula: C5H7BrO2
CAS: 6000-00-6
Molecular weight: 178
m/z	intensity
12	2
13	5
14	11
15	235
16	3
24	1
25	7
26	31
27	74
28	37
29	65
30	14
31	24
32	2
33	1
36	6
37	50
38	110
39	550
40	140
41	218
42	40
43	16
44	9
45	14
49	3
50	6
51	9
52	4
53	18
54	16
55	67
56	19
57	7
58	1
59	178
60	5
61	1
65	1
66	7
67	14
68	451
69	54
70	5
71	99
72	6
73	1
74	2
75	3
76	1
77	11
78	2
79	23
80	29
81	21
82	27
83	15
84	19
85	25
86	1
87	1
91	3
92	3
93	24
94	28
95	23
96	25
97	1
98	18
99	999
100	59
101	7
102	1
103	5
104	1
105	6
106	1
107	3
108	1
109	3
112	1
113	1
114	1
115	1
117	6
118	3
119	108
120	8
121	98
122	6
123	1
130	1
133	5
134	2
135	9
136	2
137	6
138	1
139	1
146	63
147	270
148	74
149	283
150	12
151	21
152	1
153	4
154	1
156	6
157	1
158	6
159	1
163	2
164	1
165	2
177	32
178	290
179	62
180	285
181	33
182	3
