Mass Spectrum: Imidazole, 2-fluoro-5-[2-carboxyvinyl]-
Formula: C6H5FN2O2
CAS: 60010-46-0
Molecular weight: 156
m/z	intensity
41	152
42	200
43	511
44	999
45	112
46	30
47	12
48	4
49	8
50	31
51	63
52	116
53	78
54	366
55	129
56	54
57	46
58	17
59	15
60	21
62	24
63	16
64	47
65	36
66	62
67	38
68	32
69	26
70	15
71	21
72	13
73	18
74	12
75	10
76	4
77	17
78	18
79	17
80	34
81	48
82	64
83	30
84	36
85	21
86	27
89	4
91	9
92	11
93	26
94	25
95	14
96	18
97	32
98	7
99	24
100	17
101	17
102	25
104	10
105	11
106	15
107	5
108	30
109	34
110	418
111	89
112	133
113	11
117	4
119	4
120	5
121	4
124	4
126	5
127	4
128	6
129	6
130	6
131	4
133	6
134	26
135	14
136	55
137	19
138	49
139	10
147	5
148	5
149	4
150	4
154	4
155	22
156	58
157	5
