Mass Spectrum: 2-Acetylpyrrolidine
Formula: C6H11NO
CAS: 60026-20-2
Molecular weight: 113
m/z	intensity
38	6
39	97
40	30
41	357
42	160
43	750
44	39
45	6
52	8
53	28
54	8
55	8
56	28
67	18
68	217
69	79
70	999
71	87
83	36
84	58
96	26
111	26
112	6
