Mass Spectrum: Pentanedioic acid, 2-(methoxyimino)-, bis(trimethylsilyl) ester
Formula: C12H25NO5Si2
CAS: 60022-87-9
Molecular weight: 319
m/z	intensity
15	6
26	2
27	9
29	16
30	3
31	6
42	6
43	44
44	23
45	130
46	10
47	40
48	2
53	4
54	26
55	124
56	11
57	10
58	43
59	83
60	15
61	27
62	2
63	1
66	1
68	3
70	11
71	6
73	999
74	109
75	349
76	24
77	12
80	4
81	2
82	24
83	3
84	38
85	8
86	6
87	2
89	108
90	9
91	8
92	1
96	2
97	2
98	6
99	6
100	7
101	4
102	4
103	5
104	1
105	4
109	1
110	2
111	7
112	51
113	6
114	2
115	8
116	4
117	4
118	2
119	4
120	1
124	1
125	4
126	33
127	8
128	6
129	15
130	3
131	12
132	4
133	37
134	5
135	4
138	2
139	1
140	2
142	4
143	4
144	21
147	345
148	51
149	35
150	5
151	1
152	1
154	22
155	7
156	147
157	19
158	12
159	3
160	2
163	6
164	1
165	1
168	1
169	1
170	58
171	8
172	23
173	10
174	7
175	1
176	1
182	6
183	6
184	4
186	86
187	12
188	5
189	1
190	2
191	1
192	1
197	1
198	242
199	36
200	17
201	23
202	59
203	11
204	3
214	3
216	2
217	1
227	1
228	3
229	61
230	11
231	4
232	1
233	1
242	1
243	2
244	41
245	8
246	4
247	1
260	2
261	1
272	7
273	5
274	2
288	123
289	30
290	13
291	1
304	115
305	30
306	11
307	2
319	11
320	3
321	1
