Mass Spectrum: 1-Acetylcyclopentadiene
Formula: C7H8O
CAS: 60032-12-4
Molecular weight: 108
m/z	intensity
26	12
27	25
37	45
38	74
39	282
42	23
43	578
50	66
51	59
61	49
62	77
63	160
64	64
65	999
66	114
77	67
78	12
79	41
92	22
93	445
94	36
108	697
109	72
