Mass Spectrum: 4-Ethoxy-2-butanone
Formula: C6H12O2
CAS: 60044-74-8
Molecular weight: 116
m/z	intensity
13	1
14	9
15	64
16	1
17	2
18	7
25	1
26	17
27	98
28	30
29	126
30	5
31	292
32	2
35	1
37	2
38	3
39	13
40	3
41	36
42	56
43	999
44	37
45	134
46	9
47	23
50	3
51	1
53	2
54	2
55	111
56	5
57	38
58	29
59	159
60	7
61	36
67	1
69	4
70	45
71	100
72	229
73	51
74	3
75	1
81	1
83	1
85	1
87	114
88	9
89	9
97	5
98	2
99	1
101	68
102	4
115	5
116	8
