Mass Spectrum: Propanedioic acid, (1-cyclohexen-1-ylmethyl)-, dimethyl ester
Formula: C12H18O4
CAS: 60045-25-2
Molecular weight: 226
m/z	intensity
39	210
41	310
67	190
77	210
79	570
91	220
94	999
95	270
107	200
133	470
134	200
135	230
138	160
163	150
166	420
167	120
195	200
208	10
226	200
