Mass Spectrum: 2-(p-(Phenylazo)phenyl)hydrazinesulfonic acid
Formula: C12H12N4O3S
CAS: 6004-88-2
Molecular weight: 292
m/z	intensity
14	14
15	10
16	43
17	4
18	12
26	16
27	59
28	472
29	36
30	8
32	22
34	6
36	6
37	21
38	42
39	151
40	43
41	129
42	35
43	88
44	32
45	9
46	32
48	197
49	5
50	49
51	158
52	47
53	37
54	60
55	104
56	51
57	79
58	7
60	6
61	11
62	17
63	42
64	436
65	209
66	298
67	91
68	41
69	88
70	44
71	39
72	4
73	8
74	10
75	10
76	22
77	652
78	74
79	27
80	30
81	60
82	43
83	63
84	30
85	23
89	5
90	8
91	37
92	353
93	999
94	82
95	37
96	33
97	51
98	85
99	11
102	5
103	5
104	7
105	148
106	19
107	25
108	53
109	28
110	15
111	30
112	22
113	6
115	16
117	6
118	5
119	9
120	84
121	22
122	7
123	14
124	9
125	13
126	8
127	7
128	11
129	7
130	4
131	4
133	9
134	5
135	9
136	5
137	11
138	7
139	9
140	5
141	11
143	6
145	5
146	4
147	7
149	7
151	10
152	38
153	32
154	11
155	5
157	4
165	4
166	9
167	30
168	47
169	18
170	5
180	4
181	5
182	181
183	29
184	29
185	6
194	4
195	7
196	7
197	136
198	32
199	5
210	18
211	5
212	4
236	4
257	4
273	25
274	7
