Mass Spectrum: Phosphine, (1,1-dimethylethyl)(1-methylethyl)-
Formula: C7H17P
CAS: 60058-18-6
Molecular weight: 132
m/z	intensity
25	0
26	3
27	63
28	3
29	171
30	4
31	1
33	0
34	0
35	11
37	0
38	2
39	44
40	6
41	380
42	18
43	257
44	7
45	33
46	7
47	27
48	11
49	2
50	1
51	1
52	0
53	4
54	0
55	26
56	13
57	999
58	42
59	18
60	3
61	40
62	7
63	1
64	0
67	0
68	1
69	8
70	0
71	8
72	4
73	11
74	7
75	41
76	128
77	72
78	2
83	1
85	0
86	0
87	1
88	4
89	7
90	11
91	1
92	0
103	0
108	0
117	13
118	6
119	0
131	0
132	124
