Mass Spectrum: 1-Benzylamino-6-benzyloxyhexane
Formula: C20H27NO
CAS: 60058-25-5
Molecular weight: 297
m/z	intensity
30	60
39	20
41	30
42	9
43	10
44	19
45	10
50	10
51	19
55	19
56	9
63	9
65	60
77	30
78	10
79	20
81	9
89	9
90	9
91	999
92	99
100	20
104	20
105	20
106	168
107	50
108	10
120	508
121	50
134	40
135	9
176	9
190	40
191	10
206	169
207	30
220	10
297	9
