Mass Spectrum: 1-Benzylamino-5-benzyloxypentane
Formula: C19H25NO
CAS: 60058-24-4
Molecular weight: 283
m/z	intensity
30	20
39	20
41	30
42	9
43	10
51	19
63	9
65	60
77	19
78	10
79	20
84	9
85	10
86	10
89	9
90	9
91	999
92	90
104	9
105	9
106	119
107	19
120	390
121	30
134	10
176	49
177	10
192	321
193	39
206	9
