Mass Spectrum: 4H-1,3-Dithiin, 4-methyl-2-(1-propenyl)-
Formula: C8H12S2
CAS: 60051-35-6
Molecular weight: 172
m/z	intensity
34	4
36	4
37	20
38	37
39	241
40	23
41	172
42	16
43	6
44	25
45	707
46	37
47	56
48	5
49	11
50	52
51	76
52	36
53	269
54	21
55	38
56	5
57	46
58	129
59	141
60	32
61	12
63	5
64	7
65	22
66	7
67	22
68	4
69	61
70	10
71	189
72	10
73	16
74	5
76	10
77	24
78	7
79	29
80	6
81	11
82	12
83	13
84	42
85	999
86	966
87	290
88	61
89	10
91	30
92	6
93	50
94	9
95	6
97	56
98	17
99	39
100	4
103	62
105	15
106	7
107	28
108	39
109	5
111	70
112	11
113	12
117	110
118	9
119	11
123	15
124	19
125	10
129	4
131	5
137	4
138	6
139	667
140	62
141	29
142	4
157	9
172	586
173	54
174	43
175	4
