Mass Spectrum: 1,2-Dithiin, 3,4-dihydro-4-methyl-3-(1-propenyl)-
Formula: C8H12S2
CAS: 60051-36-7
Molecular weight: 172
m/z	intensity
34	19
37	13
38	25
39	210
40	35
41	194
42	15
44	22
45	356
46	19
47	35
49	8
50	36
51	62
52	28
53	160
54	18
55	60
57	21
58	61
59	88
60	16
61	14
62	8
63	17
64	18
65	61
66	16
67	51
69	31
70	7
71	90
72	8
73	16
74	10
76	8
77	83
78	20
79	66
80	14
81	9
82	8
83	8
84	40
85	999
86	410
87	109
88	22
89	7
91	133
92	21
93	93
94	13
95	9
97	110
98	24
99	60
100	6
103	118
104	6
105	58
106	28
107	52
108	19
109	6
110	9
111	171
112	17
113	13
116	7
117	392
118	24
119	34
123	22
124	32
125	15
129	5
131	6
137	7
138	7
139	989
140	89
141	40
143	9
157	11
172	449
173	45
174	40
