Mass Spectrum: Benzeneethanol, .beta.-methylene-
Formula: C9H10O
CAS: 6006-81-1
Molecular weight: 134
m/z	intensity
39	110
50	220
51	380
63	140
76	120
77	810
78	470
79	230
91	430
92	440
102	220
103	999
104	220
105	580
115	220
133	300
134	660
135	65
