Mass Spectrum: 1H-Cyclopentacyclooctene-4,8(2H,5H)-dione, hexahydro-6,6-dimethyl-
Formula: C13H20O2
CAS: 60068-40-8
Molecular weight: 208
m/z	intensity
26	3
27	59
29	91
30	1
31	2
38	1
39	90
40	28
41	243
42	24
43	182
44	5
45	2
47	0
48	0
50	1
51	5
52	5
53	74
54	75
55	197
56	109
57	33
58	4
59	8
61	1
62	0
63	0
64	0
65	25
66	74
67	327
68	113
69	54
70	50
71	8
72	0
73	1
75	2
77	25
78	7
79	73
80	102
81	211
82	92
83	999
84	64
85	14
86	0
91	18
92	6
93	21
94	13
95	400
96	51
97	67
98	33
99	33
100	3
101	1
103	3
104	1
105	10
106	8
107	23
108	11
109	51
110	47
111	74
112	237
113	43
114	3
115	1
116	0
117	1
118	1
119	3
120	2
121	5
122	2
123	34
124	485
125	113
126	10
127	6
128	5
129	1
130	1
131	1
132	1
133	7
134	5
135	15
136	4
137	12
138	5
139	4
140	138
141	352
142	34
143	4
145	1
146	1
147	9
148	6
149	5
150	10
151	24
152	191
153	117
154	12
155	1
156	1
157	1
159	1
161	2
162	4
163	4
164	2
165	13
166	22
167	10
168	1
169	1
171	0
173	0
175	4
176	0
177	2
179	5
180	36
181	5
187	0
189	6
190	145
191	24
192	4
193	71
194	9
195	2
203	1
204	1
205	2
206	1
207	26
208	177
209	29
210	3
