Mass Spectrum: 1,1-Dimethyl-4-methylenecyclohexane
Formula: C9H16
CAS: 6007-96-1
Molecular weight: 124
m/z	intensity
36	0
37	5
38	16
39	392
40	103
41	610
42	62
43	110
44	4
45	4
46	2
47	1
49	0
50	23
51	74
52	39
53	221
54	67
55	313
56	125
57	31
58	1
59	0
60	0
61	1
62	5
63	19
64	3
65	80
66	36
67	891
68	624
69	292
70	72
71	4
72	1
73	3
74	3
75	3
76	2
77	110
78	26
79	157
80	41
81	504
82	349
83	54
84	3
87	0
89	3
90	1
91	103
92	15
93	53
94	26
95	767
96	121
97	7
103	4
104	0
105	17
106	2
107	72
108	13
109	999
110	90
111	2
115	0
121	0
122	14
123	8
124	491
125	49
126	2
