Mass Spectrum: Benzaldehyde phenoxycarbonylhydrazone
Formula: C14H12N2O2
CAS: 60072-22-2
Molecular weight: 240
m/z	intensity
26	17
27	34
28	5
29	14
30	4
31	29
36	3
37	31
38	71
39	191
40	71
41	18
42	11
43	26
44	18
45	41
46	10
47	25
48	2
49	14
50	93
51	145
52	19
53	18
54	4
55	54
56	5
57	11
59	18
60	8
61	29
62	67
63	144
64	78
65	165
66	163
67	15
68	8
69	10
70	3
71	4
72	9
73	10
74	30
75	29
76	32
77	165
78	17
79	7
81	4
82	2
83	5
84	3
85	5
86	10
87	8
88	18
89	268
90	621
91	66
92	23
93	22
94	999
95	75
96	6
97	4
98	2
99	2
102	3
103	21
104	27
105	6
111	2
116	2
118	107
119	20
120	14
121	2
146	113
147	348
148	36
149	26
150	2
240	40
241	6
