Mass Spectrum: 2-Thiophenepropanamine
Formula: C7H11NS
CAS: 6007-90-5
Molecular weight: 141
m/z	intensity
27	33
29	8
30	999
31	41
38	4
39	73
41	13
42	33
43	49
44	43
45	160
47	4
50	4
51	21
52	4
53	61
54	2
56	64
57	34
58	20
59	1
63	8
65	14
66	11
67	12
69	18
70	7
71	10
77	35
78	31
79	30
80	1
84	19
85	10
91	91
92	1
96	14
97	509
98	84
99	21
106	1
109	10
110	16
111	32
112	3
123	307
124	768
125	73
126	28
141	60
142	5
143	2
