Mass Spectrum: 1,2-Dithiocane
Formula: C6H12S2
CAS: 6008-69-1
Molecular weight: 148
m/z	intensity
41	560
55	999
67	170
69	65
81	100
82	63
83	260
84	30
85	27
87	180
88	23
89	11
101	97
102	10
103	7
105	29
114	17
115	210
116	48
117	15
148	720
149	65
150	65
