Mass Spectrum: n-Octyl phenyl ketone
Formula: C15H22O
CAS: 6008-36-2
Molecular weight: 218
m/z	intensity
26	1
27	31
29	41
38	1
39	32
40	4
41	89
42	18
43	48
44	1
50	17
51	84
52	7
53	9
54	3
55	70
56	10
57	11
62	1
63	3
65	7
66	1
67	4
68	1
69	6
70	1
71	3
74	4
75	4
76	19
77	445
78	79
79	11
81	2
83	1
89	2
91	24
92	7
96	2
102	1
103	6
105	999
106	87
107	10
115	8
116	1
117	3
118	1
120	958
121	106
122	6
127	1
128	2
129	4
130	1
131	2
132	1
133	127
134	14
143	1
144	1
145	2
146	1
147	4
148	1
161	1
175	3
176	1
189	2
217	2
218	47
219	8
