Mass Spectrum: 1,3-Dithiolane, 2-methyl-2-(1-methylethyl)-
Formula: C7H14S2
CAS: 6008-88-4
Molecular weight: 162
m/z	intensity
18	32
27	47
39	33
41	79
42	15
43	24
44	18
45	48
47	15
48	15
53	20
55	25
58	26
59	253
60	23
61	57
64	37
67	15
69	56
70	17
71	11
74	29
85	14
87	29
92	17
117	16
119	999
120	81
121	99
147	18
160	17
162	96
163	12
164	10
