Mass Spectrum: Acetonitrile, 2-(2-aminophenylamino)-
Formula: C8H9N3
CAS: 60093-60-9
Molecular weight: 147
m/z	intensity
33	2
34	3
36	2
37	13
38	31
39	92
40	89
41	37
42	11
43	11
44	24
46	5
47	1
48	1
49	3
50	32
51	68
52	106
53	110
54	28
55	8
56	2
57	4
58	0
59	17
60	13
62	16
63	41
64	34
65	104
66	24
67	8
68	1
69	0
70	1
71	1
72	2
74	5
75	13
76	22
77	26
78	34
80	483
81	23
82	3
83	3
84	2
85	1
87	1
88	2
90	25
91	28
92	77
93	27
94	17
95	1
96	1
97	1
99	0
101	0
102	6
103	13
104	7
105	22
107	999
108	69
109	3
111	0
112	1
116	2
117	5
118	42
119	215
120	21
121	9
122	2
123	1
124	0
128	0
129	9
130	63
131	17
132	2
133	1
134	3
136	0
140	0
141	3
143	7
144	10
145	18
146	121
147	646
148	66
149	4
150	0
