Mass Spectrum: Cholest-2-en-1-one, (5.alpha.)-
Formula: C27H44O
CAS: 601-11-6
Molecular weight: 384
m/z	intensity
40	44
41	583
42	83
43	999
44	38
45	5
50	5
51	11
52	5
53	100
54	22
55	466
56	55
57	272
58	11
65	33
66	22
67	194
68	166
69	188
70	27
71	88
72	5
77	100
78	22
79	233
80	38
81	272
82	38
83	72
84	11
85	16
91	188
92	33
93	205
94	72
95	216
96	27
97	44
98	5
103	11
104	11
105	161
106	44
107	188
108	177
109	394
110	55
111	272
112	16
115	16
116	5
117	33
118	11
119	94
120	83
121	188
122	555
123	161
124	55
125	11
127	5
128	11
129	22
130	11
131	61
132	16
133	88
134	111
135	83
136	27
137	33
138	16
139	5
141	5
142	5
143	22
144	11
145	50
146	16
147	94
148	22
149	27
150	5
151	5
152	5
155	11
157	27
158	11
159	50
160	27
161	127
162	33
163	22
165	5
169	5
171	11
172	5
173	38
174	16
175	44
176	55
177	16
183	5
185	16
186	5
187	233
188	66
189	33
190	5
191	5
193	5
197	5
199	11
200	5
201	50
202	11
203	16
204	5
211	16
212	5
213	38
214	11
215	133
216	22
217	11
225	5
226	5
227	5
228	5
229	194
230	155
231	116
232	22
233	5
243	16
244	94
245	38
246	5
247	5
253	5
255	5
257	5
258	5
260	5
261	5
263	27
264	11
269	5
270	5
271	27
272	5
274	5
275	5
276	16
277	5
299	11
300	11
301	55
302	11
314	5
315	5
316	27
317	5
341	72
342	22
343	5
351	5
356	5
366	5
369	327
370	88
371	11
383	5
384	244
385	77
386	11
