Mass Spectrum: Propanedioic acid, (1-methylethyl)-
Formula: C6H10O4
CAS: 601-79-6
Molecular weight: 146
m/z	intensity
41	465
42	244
43	484
44	21
45	289
46	6
47	8
48	3
50	11
51	23
52	5
53	44
54	18
55	126
56	60
57	41
58	6
59	65
60	11
61	0
63	1
66	2
67	7
68	31
69	247
70	11
71	14
72	8
73	7
81	5
82	70
83	69
84	26
85	113
86	799
87	389
88	17
89	2
95	3
97	1
99	12
100	142
101	46
102	18
104	999
105	49
106	9
127	7
128	1
129	164
130	9
131	0
145	3
146	38
147	3
