Mass Spectrum: Benzenamine, 3-methyl-2-nitro-
Formula: C7H8N2O2
CAS: 601-87-6
Molecular weight: 152
m/z	intensity
15	5
17	3
18	18
26	23
27	107
28	191
29	29
30	100
31	8
32	4
37	30
38	74
39	257
40	42
41	79
42	36
43	10
44	17
46	8
49	7
50	80
51	218
52	215
53	188
54	67
55	10
56	1
60	1
61	22
62	47
63	133
64	95
65	198
66	143
67	77
68	18
69	3
73	5
74	27
75	33
76	65
77	999
78	278
79	546
80	446
81	56
82	3
86	5
87	5
88	5
89	33
90	91
91	192
92	85
93	76
94	82
95	7
102	15
103	14
104	206
105	195
106	144
107	107
108	271
109	17
116	1
117	91
118	42
119	7
120	9
121	11
122	26
123	2
133	1
134	29
135	985
136	88
137	5
152	928
153	74
154	6
