Mass Spectrum: 4-(2-Isothiocyanatoethyl)phenol
Formula: C9H9NOS
CAS: 60114-04-7
Molecular weight: 179
m/z	intensity
27	4
37	1
38	5
39	23
40	4
45	7
50	11
51	29
52	12
53	23
55	10
58	3
59	4
61	4
62	9
63	20
64	4
65	26
66	8
72	56
74	5
75	4
76	3
77	122
78	24
79	14
81	4
89	8
91	33
92	3
93	3
94	5
101	2
102	2
103	13
105	4
107	999
108	77
109	6
116	2
118	3
119	9
120	13
121	8
124	9
144	2
178	2
179	193
180	22
181	11
