Mass Spectrum: Cyclopropanecarboxylic acid, propyl ester
Formula: C7H12O2
CAS: 60128-01-0
Molecular weight: 128
m/z	intensity
25	6
26	66
27	399
28	24
29	79
30	15
31	49
36	6
37	22
38	59
39	641
40	105
41	949
42	287
43	399
44	45
45	109
52	9
53	6
55	49
56	12
57	11
58	37
59	109
60	7
68	55
69	999
70	85
71	29
73	9
79	7
85	29
86	68
87	835
88	45
89	6
99	39
100	3
128	1
