Mass Spectrum: Cyclopropanecarboxylic acid,tridecyl ester
Formula: C17H32O2
CAS: 60128-07-6
Molecular weight: 268
m/z	intensity
36	38
38	25
39	185
40	42
41	570
42	118
43	390
44	45
45	23
50	9
51	13
53	22
54	55
55	280
56	180
57	212
58	17
67	40
68	80
69	872
70	182
71	97
81	20
82	70
83	185
84	118
85	48
86	30
87	999
88	45
95	12
96	33
97	130
98	56
99	9
110	10
111	55
112	40
113	10
125	28
126	20
127	6
140	17
142	20
154	22
155	4
182	60
183	10
