Mass Spectrum: Cyclopropanecarboxylic acid,pentyl ester
Formula: C9H16O2
CAS: 60128-02-1
Molecular weight: 156
m/z	intensity
36	20
37	35
38	68
39	510
40	110
41	758
42	353
43	260
44	71
45	168
50	9
51	6
53	19
54	7
55	180
56	21
57	35
58	102
59	7
60	8
68	100
69	999
70	325
71	50
84	18
85	170
86	55
87	635
88	27
99	20
100	1
112	3
113	5
114	3
