Mass Spectrum: 2-Cyclopropylcarbonyloxytetradecane
Formula: C18H34O2
CAS: 60128-40-7
Molecular weight: 282
m/z	intensity
34	10
35	47
36	315
37	108
38	319
39	646
40	188
41	889
42	342
43	467
44	341
45	109
49	29
50	146
51	159
52	80
53	96
54	104
55	398
56	225
57	258
58	95
59	14
60	12
61	14
62	25
63	54
64	20
65	22
66	28
67	128
68	83
69	999
70	187
71	121
72	15
73	40
74	59
75	100
76	99
77	70
78	100
79	49
80	14
81	85
82	86
83	150
84	128
85	150
86	26
87	212
88	10
89	10
91	20
93	15
94	12
95	49
96	55
97	118
98	60
99	25
100	16
109	19
110	26
111	68
112	29
113	90
121	10
124	17
125	24
126	20
127	49
139	12
140	8
141	10
152	8
153	9
154	11
155	8
168	13
193	10
194	9
196	52
197	9
213	17
