Mass Spectrum: .alpha.,.beta.-Methyl-2-deoxy-D-ribofuranoside
Formula: C6H12O4
CAS: 60134-26-1
Molecular weight: 148
m/z	intensity
29	200
31	200
43	400
44	190
45	510
57	380
58	250
59	600
60	620
61	640
69	240
71	520
73	500
88	440
99	999
117	340
