Mass Spectrum: Methyldopate
Formula: C12H17NO4
CAS: 6014-30-8
Molecular weight: 239
m/z	intensity
41	29
42	323
43	57
44	12
45	7
47	18
50	7
51	47
52	8
53	10
54	3
55	23
56	29
57	34
58	7
60	12
63	4
64	2
65	12
66	8
67	9
68	3
69	8
70	24
71	13
72	1
73	2
74	3
75	3
76	3
77	45
78	13
79	7
80	3
81	8
82	3
83	33
84	5
85	5
87	1
88	321
89	14
90	1
91	8
92	2
93	8
94	8
95	9
96	3
97	7
98	1
99	2
100	3
101	1
102	3
103	25
104	7
105	12
106	8
107	8
108	3
109	6
110	5
111	5
112	1
113	2
115	2
116	999
117	64
118	8
119	3
120	3
121	11
122	7
123	82
124	31
125	5
127	1
129	1
130	1
131	29
132	5
133	4
134	3
135	3
136	5
137	3
139	1
141	1
146	3
147	3
148	8
149	48
150	10
151	13
152	2
153	1
155	1
162	1
163	2
164	3
165	20
166	278
167	34
168	3
176	3
177	6
178	2
179	1
205	1
207	1
222	1
239	5
240	1
