Mass Spectrum: dl-Proline, 1-(phenylmethyl)-
Formula: C12H15NO2
CAS: 60169-72-4
Molecular weight: 205
m/z	intensity
24	0
26	4
27	41
28	59
29	7
30	10
31	11
36	0
37	2
38	4
39	54
40	11
41	71
42	28
43	29
44	3
45	15
46	1
50	5
51	25
52	8
53	7
54	8
55	12
56	2
57	1
58	3
59	0
60	0
61	0
62	2
63	24
64	8
65	157
66	10
67	2
68	23
69	5
70	231
71	12
72	1
73	1
74	1
75	3
76	2
77	12
78	9
79	4
80	14
81	0
82	3
83	1
84	3
85	0
86	2
87	0
88	0
89	31
90	19
91	999
92	69
93	2
96	1
98	2
99	0
100	6
102	1
103	5
104	16
105	3
106	1
107	1
108	0
113	0
114	2
115	2
116	3
117	2
118	3
119	0
120	0
121	0
126	0
128	5
129	0
130	11
131	5
132	4
133	1
141	0
142	0
143	1
144	1
151	0
152	0
153	0
154	0
156	0
157	0
158	3
159	4
160	695
161	69
162	3
164	1
165	1
166	0
167	0
169	0
175	0
178	0
179	1
180	0
181	1
182	0
186	0
197	1
198	0
204	8
205	14
206	1
