Mass Spectrum: 4,5-Isoxazoledione, 3-methyl-, 4-[(2-methylphenyl)hydrazone]
Formula: C11H11N3O2
CAS: 6017-60-3
Molecular weight: 217
m/z	intensity
39	350
41	529
44	999
51	310
52	270
53	140
63	150
65	240
77	519
78	450
79	529
92	420
104	739
106	679
107	490
119	160
130	50
131	190
132	250
133	100
145	90
146	120
172	100
173	60
176	50
217	300
