Mass Spectrum: 1,4-Diphenyl-3-chloro-3-ethoxycarbonyl-azetidin-2-one
Formula: C18H16ClNO3
CAS: 60180-65-6
Molecular weight: 329
m/z	intensity
35	120
50	80
51	398
69	428
76	109
77	999
78	49
89	121
101	140
102	762
103	201
104	170
119	262
120	50
125	91
129	131
137	141
146	80
147	271
152	39
165	199
174	30
175	391
180	533
181	862
182	159
210	620
211	229
248	130
293	100
294	49
329	151
330	39
331	60
