Mass Spectrum: Benzaldehyde, 4-benzyloxy-3-ethoxy-
Formula: C16H16O3
CAS: 60186-33-6
Molecular weight: 256
m/z	intensity
41	9
42	1
43	4
44	0
45	1
47	0
49	4
50	13
51	37
52	20
53	15
54	1
55	3
57	1
61	1
62	6
63	25
64	10
65	104
66	6
67	0
69	0
74	1
75	2
76	2
77	11
78	2
79	23
80	9
81	29
82	2
84	2
86	3
87	0
89	23
90	1
91	999
92	91
93	3
96	1
105	2
107	1
108	3
109	15
110	1
115	2
119	8
120	2
121	1
128	1
135	0
136	1
137	10
138	1
139	0
141	1
149	6
150	1
151	0
152	1
153	1
163	0
164	0
165	5
166	0
181	1
256	58
257	10
258	1
