Mass Spectrum: DL-Arabinitol
Formula: C5H12O5
CAS: 6018-27-5
Molecular weight: 152
m/z	intensity
13	2
14	13
15	158
16	4
17	16
18	75
25	3
26	23
27	113
28	155
29	230
30	48
31	353
32	29
33	5
36	2
37	4
38	7
39	38
40	8
41	34
42	103
43	578
44	461
45	312
46	17
47	20
49	5
50	3
51	4
52	4
53	8
54	9
55	139
56	386
57	152
58	16
59	12
60	145
61	999
62	45
63	7
66	2
67	5
68	10
69	18
70	10
71	36
72	33
73	459
74	587
75	28
76	4
79	3
80	3
81	7
82	8
83	7
84	5
85	73
86	15
87	6
88	9
89	6
90	8
91	374
92	14
93	5
94	2
95	4
96	4
97	7
98	13
99	3
102	2
103	279
104	17
105	3
107	2
109	2
110	2
111	4
112	2
115	2
116	3
121	9
125	2
129	2
133	3
135	2
137	2
