Mass Spectrum: Etaconazole
Formula: C14H15Cl2N3O2
CAS: 60207-93-4
Molecular weight: 327
m/z	intensity
51	7
52	5
53	26
54	25
55	999
56	69
57	9
58	8
59	2
60	4
61	4
62	4
63	8
64	2
66	2
68	5
69	5
70	9
71	6
72	5
73	15
74	36
75	57
76	10
77	4
78	2
79	1
81	2
82	79
83	3
84	8
85	3
86	8
87	11
88	4
89	14
90	3
91	2
94	2
96	25
97	8
98	1
99	27
100	9
101	10
102	1
103	6
104	1
109	72
110	48
111	42
112	20
113	12
114	193
115	18
116	1
119	6
120	3
121	1
123	24
124	11
125	11
126	1
127	2
128	7
129	1
133	8
134	3
135	29
136	17
137	10
138	44
139	25
140	21
141	9
144	9
145	143
146	19
147	106
148	14
149	16
150	7
151	4
152	5
153	4
155	1
156	4
157	3
158	2
159	46
160	7
161	23
162	8
163	5
164	2
165	2
166	3
167	2
168	1
170	6
171	9
172	10
173	745
174	70
175	481
176	42
177	88
178	8
179	2
180	2
181	1
182	3
183	1
184	2
185	2
186	3
187	2
188	3
189	2
191	269
192	24
193	157
194	9
195	28
196	3
198	1
199	2
200	1
204	4
205	2
206	14
207	62
208	20
209	11
210	9
211	3
212	2
213	1
215	3
216	1
222	2
223	1
224	1
232	3
234	7
235	2
245	573
246	78
247	393
248	38
249	54
250	9
251	2
253	3
255	2
256	3
262	1
265	2
267	1
281	20
282	4
283	2
284	1
298	1
300	3
301	1
302	1
326	1
328	1
