Mass Spectrum: N-Dimethylamino-methylidene-2-amino-octadecan-1,3-diol methaneboronate
Formula: C22H45BN2O2
CAS: 60203-28-3
Molecular weight: 380
m/z	intensity
43	260
44	254
57	204
72	335
73	613
97	278
98	999
125	246
336	376
364	228
365	902
366	226
380	128
