Mass Spectrum: N-Dimethylaminomethylidene-2-amino-octadecan-1,3-diol benzeneboronate
Formula: C27H47BN2O2
CAS: 60203-30-7
Molecular weight: 442
m/z	intensity
43	354
44	309
57	296
72	349
73	894
97	320
98	999
201	427
364	228
365	864
366	278
398	348
442	150
