Mass Spectrum: 2-Methyl-N-(1-methylethylidene)-4-[(1E)-1-pentadecenyl]-1,3,2-dioxaborinan-5-amine  #
Formula: C22H42BNO2
CAS: 60203-39-6
Molecular weight: 363
m/z	intensity
41	99
42	100
43	160
58	79
68	299
83	409
84	79
110	90
124	299
125	999
126	99
348	10
363	9
