Mass Spectrum: Cyclohexanepropanoic acid, 2-(acetyloxy)-, methyl ester, cis-
Formula: C12H20O4
CAS: 60211-09-8
Molecular weight: 228
m/z	intensity
27	55
28	14
29	52
30	4
31	14
33	3
37	4
38	4
39	79
40	20
41	213
42	40
43	999
44	54
45	22
50	5
51	13
52	16
53	76
54	47
55	231
56	25
57	70
58	16
59	87
60	12
61	11
62	3
63	5
65	23
66	26
67	217
68	66
69	55
70	38
71	43
72	12
73	9
74	537
75	59
76	7
77	38
78	17
79	212
80	115
81	223
82	87
83	56
84	44
85	30
86	8
87	114
88	24
89	5
91	42
92	48
93	131
94	600
95	523
96	48
97	42
98	67
99	31
100	10
101	15
102	6
103	4
104	4
105	6
106	5
107	44
108	188
109	70
110	19
111	58
112	51
113	16
114	5
115	8
116	10
117	8
118	33
119	52
120	9
121	12
122	19
123	9
124	12
125	106
126	25
127	11
128	4
129	12
130	15
131	4
135	25
136	684
137	139
138	14
139	11
140	20
141	11
142	4
143	12
144	16
145	4
149	6
150	3
152	5
153	228
154	65
155	148
156	20
157	7
158	4
168	133
169	17
171	5
185	89
186	17
