Mass Spectrum: Hydrazinecarboxamide, 2-[3-(2-cyclohexen-1-yl)propylidene]-
Formula: C10H17N3O
CAS: 60210-94-8
Molecular weight: 195
m/z	intensity
26	11
27	142
28	87
29	95
30	106
31	28
38	7
39	186
40	32
41	354
42	61
43	204
44	271
45	57
50	15
51	46
52	29
53	156
54	62
55	146
56	61
57	116
58	933
59	47
60	47
61	63
62	5
63	13
64	5
65	65
66	41
67	194
68	30
69	51
70	29
71	185
72	14
74	27
75	9
76	21
77	150
78	39
79	349
80	99
81	248
82	32
83	17
84	75
85	139
86	43
88	37
89	6
91	123
92	45
93	144
94	93
95	164
96	23
97	45
98	8
99	9
100	123
101	999
102	55
103	9
104	7
105	21
106	33
107	54
108	24
109	18
110	6
114	52
115	14
117	21
118	11
119	22
120	85
121	45
122	15
123	18
124	6
130	8
132	13
133	6
134	41
135	68
136	84
137	14
141	15
142	9
143	11
144	10
150	9
151	56
152	51
153	8
176	6
177	11
178	24
194	27
195	57
196	9
