Mass Spectrum: 5.alpha.-Pregnane-12,20-dione
Formula: C21H32O2
CAS: 6022-48-6
Molecular weight: 316
m/z	intensity
43	999
44	191
45	40
46	10
48	10
50	20
51	40
52	10
53	171
54	60
55	474
56	40
57	131
58	20
60	10
63	20
64	10
65	60
66	30
67	303
68	90
69	171
70	40
71	80
72	10
77	131
78	40
79	232
80	60
81	484
82	90
83	90
84	30
85	40
91	262
92	50
93	171
94	70
95	232
96	60
97	60
98	50
99	10
103	10
104	10
105	111
106	50
107	141
108	80
109	212
110	70
111	60
112	20
113	10
115	20
116	10
117	30
118	10
119	60
120	50
121	141
122	60
123	20
124	141
125	50
126	10
127	10
128	20
129	30
130	20
131	60
132	20
133	50
134	40
135	101
136	50
137	50
138	20
139	10
141	10
142	10
143	20
144	20
145	80
146	20
147	60
148	60
149	141
150	60
151	60
152	30
153	10
155	10
157	10
159	50
160	10
161	40
162	10
163	50
164	20
165	20
166	20
171	10
173	40
174	20
175	30
176	10
177	20
187	30
188	20
189	20
190	10
191	10
205	20
218	30
219	40
220	40
221	20
227	10
229	40
230	10
231	20
232	50
233	40
234	10
240	10
246	20
247	10
255	90
256	40
257	20
258	20
259	20
272	10
273	50
274	20
283	20
284	10
288	20
297	10
298	111
299	30
300	232
301	40
316	303
317	70
