Mass Spectrum: (a-Methyl-4-fluoro)benzyl triethylsilyl ether
Formula: C14H23FOSi
CAS: 60221-77-4
Molecular weight: 254
m/z	intensity
47	179
59	59
75	437
76	30
77	39
87	40
103	999
104	99
105	59
115	30
123	99
225	200
226	19
239	29
254	9
