Mass Spectrum: Methyl 3-(4-aminophenyl)-1-adamantanecarboxylate
Formula: C18H23NO2
CAS: 60290-85-9
Molecular weight: 285
m/z	intensity
35	68
36	155
37	26
38	77
39	680
40	128
41	999
42	122
43	150
44	24
45	93
50	33
51	149
52	127
53	306
54	134
55	426
56	128
57	135
59	735
60	18
62	13
63	100
65	482
66	157
67	125
68	36
69	63
70	12
71	45
74	13
75	28
77	572
78	198
79	376
80	93
81	52
82	12
84	146
87	16
89	119
91	777
92	212
93	526
94	94
95	17
97	15
98	31
101	38
102	55
103	92
104	89
105	121
106	816
107	116
108	13
112	69
115	296
116	103
117	343
118	380
119	176
120	59
126	15
127	95
128	127
129	56
130	273
131	86
132	140
133	500
134	96
139	26
140	18
141	69
142	43
143	168
144	143
145	37
146	28
151	32
152	89
153	70
154	50
155	30
156	151
157	108
158	42
165	40
166	22
167	62
168	110
169	304
170	569
171	135
172	18
180	22
181	14
182	59
183	72
184	116
185	26
196	46
197	11
225	11
226	71
227	18
228	51
285	133
286	29
