Mass Spectrum: 1H-Isoindole-1,3(2H)-dione, 4-nitro-
Formula: C8H4N2O4
CAS: 603-62-3
Molecular weight: 192
m/z	intensity
12	1
16	3
25	1
26	6
27	4
28	48
29	3
30	212
31	1
32	5
36	6
37	40
38	26
39	19
40	2
41	2
42	2
43	10
44	14
45	1
46	8
48	3
49	18
50	19
51	11
52	9
53	9
54	1
55	2
57	2
58	1
59	1
60	4
61	19
62	35
63	49
64	13
65	10
66	2
67	1
69	1
70	13
71	1
72	3
73	28
74	193
75	999
76	77
77	11
78	13
79	3
81	2
85	1
86	3
87	6
88	8
89	18
90	24
91	53
92	6
93	2
96	2
97	1
99	2
100	2
101	4
102	53
103	607
104	48
105	16
106	31
107	5
111	1
116	1
117	9
118	9
119	98
120	9
121	2
131	1
133	1
134	7
135	1
137	1
144	3
145	4
146	81
147	8
148	30
149	48
150	5
151	1
161	2
162	141
163	18
164	2
176	12
177	1
192	737
193	73
194	9
195	1
