Mass Spectrum: Pyrimidin-4-ol, 2-amino-6-benzylamino-
Formula: C11H12N4O
CAS: 60308-49-8
Molecular weight: 216
m/z	intensity
62	31
63	55
65	228
66	32
67	39
68	183
69	75
70	74
71	8
72	20
73	4
74	14
75	15
76	27
77	158
78	69
79	140
80	14
81	8
83	47
84	25
85	25
86	28
87	6
88	6
89	83
91	693
92	50
93	15
94	5
95	16
97	27
98	53
99	19
100	3
101	7
102	28
103	58
104	148
106	999
107	81
108	19
109	8
110	38
111	117
112	24
113	2
114	0
115	2
116	25
117	26
118	14
119	5
120	3
121	1
122	2
123	2
124	1
126	95
128	43
129	110
130	39
131	49
132	16
133	3
134	1
135	0
137	15
138	4
139	55
140	3
141	3
142	3
143	9
144	31
145	35
146	11
147	3
148	6
149	0
150	0
153	0
154	0
155	4
156	15
157	14
158	14
159	3
160	2
161	1
162	1
169	0
170	13
171	9
173	32
174	10
175	2
176	0
183	0
185	1
186	7
187	12
188	6
189	1
196	2
197	2
198	7
199	8
200	2
201	1
202	0
212	0
213	9
215	176
216	816
217	93
218	6
