Mass Spectrum: Estra-1,3,5,7,9-pentaen-17-one, 3-(acetyloxy)-
Formula: C20H20O3
CAS: 6030-91-7
Molecular weight: 308
m/z	intensity
43	999
44	17
45	3
47	0
49	3
50	3
51	19
52	0
53	19
55	36
56	4
57	2
60	0
62	0
63	25
65	10
67	4
69	9
71	0
74	3
75	8
76	13
77	19
78	4
79	6
81	0
82	16
83	1
84	1
86	3
87	6
88	7
89	16
91	9
93	1
95	5
97	6
99	1
101	4
102	6
103	4
104	1
105	1
107	2
108	0
110	1
111	1
113	5
115	44
116	4
117	1
121	0
123	0
124	2
126	12
127	14
128	21
129	7
131	5
133	1
137	1
139	25
141	22
142	3
144	5
145	1
150	7
151	0
152	148
153	56
154	11
157	19
158	2
161	0
163	18
165	146
166	42
167	30
168	12
169	7
170	6
172	0
174	1
176	22
177	29
178	63
179	52
180	0
181	82
182	22
183	5
184	1
185	0
187	3
189	22
191	23
192	5
194	55
195	73
196	0
197	132
198	11
199	1
200	0
202	5
203	3
205	9
207	25
208	21
209	71
210	105
211	14
212	2
213	0
215	0
218	1
219	3
221	15
223	109
224	24
225	3
226	0
231	0
232	0
233	2
235	2
237	14
238	32
239	5
240	0
247	1
248	1
249	5
251	10
252	2
263	0
266	330
267	33
268	5
269	0
280	1
282	0
308	68
309	13
310	2
