Mass Spectrum: Disulfide, fluoromethyl methyl
Formula: C2H5FS2
CAS: 60307-49-5
Molecular weight: 112
m/z	intensity
32	50
33	170
44	50
45	490
46	250
47	190
48	200
63	30
64	130
65	30
76	50
78	90
79	880
92	30
93	170
97	80
111	30
112	999
