Mass Spectrum: 18-Norpregn-4-ene-3,20-dione, 18-ethyl-17-hydroxy-
Formula: C22H32O3
CAS: 6030-25-7
Molecular weight: 344
m/z	intensity
43	999
45	37
52	17
53	139
54	25
55	556
57	201
58	21
59	29
65	66
66	27
67	323
69	133
71	94
77	242
78	66
79	435
80	36
81	197
83	86
85	26
87	132
91	377
92	62
93	245
94	59
95	237
96	27
97	188
98	16
100	51
103	30
104	13
105	294
106	61
107	229
108	62
109	212
110	37
111	67
115	43
116	18
117	111
118	20
119	247
120	22
121	278
122	142
123	332
124	276
125	43
128	31
129	57
130	25
131	119
132	27
133	169
134	101
135	236
136	163
137	89
138	17
141	21
143	57
145	98
146	25
147	151
148	109
149	112
155	21
157	57
158	13
159	230
160	21
161	163
162	33
163	33
169	39
171	48
173	126
174	104
175	103
176	17
177	40
183	15
185	38
187	76
189	24
199	37
201	98
203	39
209	15
211	42
213	29
214	37
215	46
216	32
225	36
227	44
228	14
229	381
230	89
240	15
241	79
242	18
243	496
245	33
255	17
256	78
257	169
258	227
259	103
265	17
283	130
284	21
297	28
298	17
299	18
301	508
302	119
311	23
315	17
316	136
326	111
329	61
344	626
