Mass Spectrum: 2-[N-[1,4-Benzodioxan-2-methyl]]aminoethanethiosulfuric acid
Formula: C11H15NO5S2
CAS: 60311-26-4
Molecular weight: 305
m/z	intensity
41	355
42	231
43	183
44	999
45	99
46	12
47	65
48	547
50	96
51	95
52	198
53	74
54	52
55	45
56	298
57	69
58	52
59	76
60	57
61	293
62	21
63	77
64	844
65	166
66	47
67	14
68	39
69	11
70	89
71	10
72	7
73	10
74	18
75	8
76	23
77	73
78	20
79	36
80	64
81	93
82	22
83	3
84	17
85	6
86	15
87	11
88	70
89	36
90	666
91	55
92	56
93	30
94	6
95	13
96	6
97	3
98	7
99	4
100	8
101	9
102	44
103	11
104	5
105	9
106	6
107	28
108	12
109	38
110	103
111	14
112	6
113	3
114	47
115	9
116	30
117	3
118	9
119	14
120	22
121	223
122	33
123	6
124	6
125	3
126	3
127	2
128	19
129	3
130	3
131	3
132	2
133	3
134	20
135	58
136	126
137	14
138	2
139	1
140	0
141	3
142	7
143	1
144	8
145	1
146	8
147	46
148	190
149	27
150	5
151	0
152	1
154	1
155	1
156	2
157	1
158	6
159	1
160	4
161	0
162	1
164	8
165	165
166	140
167	14
168	2
169	1
170	7
171	1
172	1
174	1
176	3
178	363
179	40
180	5
188	0
190	1
191	5
192	49
193	7
194	2
196	2
197	1
206	2
207	1
209	0
210	1
220	1
222	3
223	1
224	28
225	61
226	257
227	31
228	14
229	0
236	23
237	4
238	7
247	2
248	1
249	11
250	7
251	3
252	5
253	4
254	3
255	1
256	7
257	57
258	14
259	6
260	1
263	5
264	1
265	2
266	2
267	6
268	5
269	1
282	2
283	2
288	2
289	3
303	1
304	1
305	2
306	1
