Mass Spectrum: Stannane, iodotriisobutyl-
Formula: C12H27ISn
CAS: 6031-48-7
Molecular weight: 418
m/z	intensity
18	10
27	57
28	20
29	337
39	93
41	59
42	51
43	103
55	46
56	36
57	999
58	279
104	31
105	36
115	15
116	61
117	171
118	165
119	259
120	207
121	305
122	25
123	59
124	20
125	51
130	85
131	90
132	155
133	139
134	93
135	181
136	5
137	31
139	31
151	41
152	20
153	72
154	25
155	98
156	10
157	47
158	5
159	25
173	106
174	82
175	217
176	129
177	295
178	57
179	150
180	15
181	51
182	5
183	20
195	12
196	7
197	36
198	15
199	51
200	7
201	33
209	62
210	37
211	117
212	46
213	254
214	15
215	57
217	23
230	5
231	46
232	41
233	77
234	46
235	98
236	10
237	15
238	41
239	20
240	2
241	15
242	2
243	238
244	129
245	409
246	150
247	538
248	5
249	88
251	98
265	98
266	57
267	191
268	88
269	274
270	41
271	103
272	5
273	54
274	10
275	36
276	10
287	85
288	57
289	150
290	98
291	136
292	25
293	31
295	36
299	31
300	25
301	394
302	238
303	658
304	269
305	844
306	41
307	124
308	7
309	171
310	20
311	46
312	33
313	103
314	25
315	67
316	5
317	15
329	15
330	93
331	26
332	114
333	36
334	1
335	5
337	20
353	25
354	2
355	15
356	12
357	389
358	243
359	642
360	305
361	881
362	88
363	129
364	10
365	150
366	15
