Mass Spectrum: Formamide, N-[(2R,6R,11R)-3-(cyclopropylmethyl)-1,2,3,4,5,6-hexahydro-6,11-dimethyl-2,6-methano-3-benzazocin-8-yl]-
Formula: C19H26N2O
CAS: 60332-70-9
Molecular weight: 298
m/z	intensity
29	563
39	215
40	12
41	236
42	289
43	116
44	109
51	32
53	117
54	75
55	999
56	145
57	36
58	113
59	8
63	14
65	47
67	12
68	32
69	13
70	164
71	167
72	19
76	9
77	57
78	28
79	31
80	22
81	11
82	70
83	16
89	13
90	7
91	47
92	13
93	25
94	28
95	28
96	32
97	13
98	23
99	88
100	15
101	5
102	10
103	18
104	13
105	18
106	48
107	25
108	22
109	9
110	62
111	11
112	12
113	5
115	133
116	26
117	30
118	16
119	9
120	10
121	4
122	21
123	20
124	156
125	17
126	4
127	43
128	68
129	52
130	81
131	40
132	24
133	8
134	26
136	67
137	4
138	9
139	8
140	6
141	31
142	26
143	88
144	65
145	36
146	29
147	12
148	11
149	20
150	18
151	4
152	9
153	13
154	15
155	21
156	69
157	77
158	45
159	21
160	22
161	16
162	13
164	233
165	33
166	4
167	20
168	17
169	15
170	29
171	18
172	46
173	37
174	21
175	6
182	16
183	15
184	18
185	16
186	48
187	24
188	10
198	8
199	64
200	46
201	42
202	12
213	10
214	9
215	10
226	5
227	18
228	5
229	22
230	4
241	8
243	34
244	10
255	10
256	59
257	334
258	63
259	6
269	40
270	13
281	4
283	152
284	32
285	5
297	79
298	235
299	52
300	5
