Mass Spectrum: cis-Norlobelanin
Formula: C21H23NO2
CAS: 6035-31-0
Molecular weight: 321
m/z	intensity
41	79
42	23
43	65
51	79
55	123
56	38
57	57
67	23
68	25
69	59
70	16
71	16
77	585
78	55
80	26
81	37
82	801
83	65
96	999
97	82
105	748
106	62
119	11
120	37
173	18
174	18
200	28
201	475
202	344
216	33
321	118
322	20
