Mass Spectrum: Cholestan-26-oic acid, 3,7-bis(acetyloxy)-, methyl ester, (3.alpha.,5.beta.,7.alpha.)-
Formula: C32H52O6
CAS: 60354-52-1
Molecular weight: 532
m/z	intensity
100	11
101	69
103	32
104	43
105	999
106	417
107	476
108	119
109	396
110	60
111	70
112	17
113	25
114	6
115	96
116	38
117	245
118	174
119	647
120	194
121	328
122	213
123	178
124	33
125	79
126	20
127	28
128	42
129	86
130	32
131	239
132	58
133	203
134	68
135	142
136	46
137	40
138	9
139	16
140	6
141	42
142	46
143	151
144	73
145	499
146	131
147	318
148	113
149	107
150	13
151	48
152	17
153	27
154	14
155	51
156	43
157	234
158	79
159	403
160	162
161	224
162	70
163	82
164	20
165	56
166	16
167	41
168	22
169	72
170	21
171	225
172	80
173	266
174	109
175	106
176	25
177	35
178	14
179	36
180	13
181	30
182	14
183	71
184	24
185	169
186	39
187	98
188	23
189	52
190	17
191	29
192	10
193	21
194	12
195	30
196	19
197	88
198	33
199	204
200	135
201	558
202	130
203	33
204	12
205	22
206	13
207	53
208	18
209	33
210	13
211	39
212	18
213	459
214	131
215	92
216	30
217	17
218	9
219	16
220	8
221	25
222	8
223	21
224	8
225	21
226	21
227	73
228	229
229	281
230	76
231	28
232	15
233	12
234	9
235	21
236	16
237	37
238	18
239	60
240	25
241	58
242	29
243	10
244	15
246	8
249	22
250	79
251	47
252	11
253	62
254	30
255	428
256	104
257	36
258	11
259	11
261	7
262	7
263	16
264	14
265	15
267	19
268	6
269	12
271	13
272	6
273	16
274	7
275	11
276	7
277	12
278	7
281	20
282	8
283	35
284	8
286	8
287	6
288	7
289	29
291	90
292	27
294	17
295	13
297	7
299	6
303	14
304	23
305	35
307	19
308	12
309	32
310	7
313	12
314	9
315	10
317	21
318	17
319	10
323	15
325	14
326	6
327	9
328	8
330	7
331	5
335	5
336	3
339	12
341	22
342	12
343	16
344	11
347	6
353	9
355	27
357	51
358	141
359	45
360	11
365	40
367	5
368	17
369	11
370	15
371	18
372	7
381	79
383	19
384	10
387	5
393	6
395	15
397	371
398	161
400	11
407	6
409	8
412	493
413	222
471	5
