Mass Spectrum: 6-exo-Methyl-5-exo-norbornenol
Formula: C8H12O
CAS: 60362-83-6
Molecular weight: 124
m/z	intensity
26	27
27	150
28	41
29	86
30	15
31	71
38	25
39	190
40	74
41	110
42	15
43	96
44	20
45	95
46	99
50	20
51	40
52	14
53	40
54	13
55	41
56	10
57	82
58	120
59	14
61	24
62	9
63	22
65	84
66	999
67	230
68	19
69	24
72	37
73	42
75	27
77	58
78	15
79	49
80	21
81	26
82	6
91	44
92	6
93	25
94	6
95	23
105	6
106	4
109	11
124	65
125	7
