Mass Spectrum: Iron, heptacarbonyldihydrobis(trimethyl phosphite-p)[.mu.3-[1,1,1-trimethylsilanaminato(2-)]]tri-, triangulo
Formula: C16H29Fe3NO13P2Si
CAS: 60370-92-5
Molecular weight: 701
m/z	intensity
27	10
28	999
29	40
30	12
31	31
32	51
33	0
34	0
38	0
39	2
40	3
42	0
43	4
44	13
45	14
46	6
47	36
48	2
49	1
50	1
51	1
54	0
55	2
57	1
58	1
59	8
60	1
61	1
62	8
63	77
64	0
65	0
67	0
69	0
70	0
71	0
72	0
73	3
74	46
75	14
76	3
77	5
78	1
79	26
80	0
81	0
83	1
84	1
88	0
89	13
90	2
91	1
92	1
93	123
94	39
95	2
96	0
97	0
98	0
100	2
104	0
105	10
106	1
107	0
108	0
109	59
110	1
111	0
112	0
115	0
116	0
117	0
119	0
120	0
121	0
124	43
125	4
126	0
127	0
129	0
130	0
131	0
133	0
134	1
135	0
143	0
145	0
146	0
147	0
148	0
149	0
151	0
152	0
154	1
156	0
161	0
165	2
166	0
167	0
168	0
169	1
171	0
173	0
175	0
176	0
177	0
178	0
180	2
181	1
182	0
183	0
184	1
185	1
186	0
187	1
188	0
190	0
191	0
196	0
197	0
198	0
199	1
200	3
201	2
202	2
203	0
204	0
206	0
207	2
208	0
210	1
211	1
212	2
213	1
214	0
215	1
217	1
218	0
221	0
222	0
223	0
224	0
225	1
226	1
227	1
228	0
229	0
230	1
231	0
232	1
233	0
235	1
236	2
237	1
238	0
239	1
240	3
241	2
242	2
243	2
244	1
245	2
246	3
247	1
248	1
249	0
251	0
252	4
253	0
254	1
255	2
256	5
257	3
258	2
259	2
260	1
261	3
262	2
263	0
264	0
265	1
266	0
267	0
268	0
269	1
270	1
271	4
272	5
273	7
274	4
275	13
276	2
278	1
279	1
281	1
282	0
283	0
284	0
285	2
286	2
287	3
288	5
289	4
290	3
291	0
292	0
293	1
294	0
295	0
299	1
300	2
301	3
302	6
303	16
304	12
305	4
306	1
308	0
314	0
315	2
316	3
317	6
318	7
319	8
320	3
321	0
323	0
329	0
330	1
331	4
332	3
333	13
334	10
335	2
336	0
345	0
346	1
347	4
348	3
349	16
350	4
351	1
352	0
354	0
355	0
360	0
362	0
363	0
364	5
365	1
366	0
377	5
378	2
379	29
380	11
381	4
382	0
395	0
399	1
407	1
408	1
409	0
410	3
411	1
412	0
426	0
435	0
436	0
437	0
439	2
440	0
441	10
442	3
443	1
444	0
445	0
446	0
461	1
463	3
464	0
465	1
466	0
469	0
470	0
471	1
472	2
473	9
474	2
475	1
477	0
488	0
489	0
490	0
491	2
492	0
493	0
497	0
498	0
499	1
500	0
501	17
502	4
503	84
504	20
505	8
506	1
517	0
519	0
521	0
526	0
527	1
528	1
529	9
530	2
531	24
532	6
533	3
534	1
555	0
556	0
557	9
558	2
559	42
560	11
561	7
562	2
563	0
583	0
584	1
585	5
586	2
587	27
588	7
589	6
590	2
591	0
613	7
614	1
615	33
616	8
617	8
618	2
619	0
637	0
640	0
641	0
642	2
643	3
644	0
645	10
646	2
671	1
672	0
673	5
699	1
701	10
702	2
703	1
