Mass Spectrum: Pyrano[3,2-b]pyran-2(3H)-one, hexahydro-, cis-
Formula: C8H12O3
CAS: 60378-32-7
Molecular weight: 156
m/z	intensity
26	7
27	78
28	38
29	84
30	7
31	13
35	0
36	0
37	1
38	3
39	49
40	11
41	99
42	63
43	224
44	52
45	11
46	0
49	0
50	2
51	4
52	2
53	11
54	6
55	62
56	23
57	47
58	14
59	2
60	4
63	0
64	0
65	1
66	1
67	4
68	2
69	9
70	33
71	999
72	49
73	3
77	2
78	0
79	2
80	0
81	3
82	3
83	5
84	9
85	20
86	3
87	2
91	1
92	1
93	1
94	8
95	2
96	1
97	3
99	1
100	11
101	2
109	0
110	5
111	2
112	1
113	1
114	21
115	6
120	1
127	1
128	49
129	4
138	8
139	1
156	53
157	5
158	0
