Mass Spectrum: Ethanone, 1-(4-methoxyphenyl)-2-phenylamino-
Formula: C15H15NO2
CAS: 6037-64-5
Molecular weight: 241
m/z	intensity
37	0
38	1
39	2
40	0
41	0
42	0
43	0
48	0
50	10
51	17
52	4
53	1
54	0
55	0
63	26
64	20
65	7
66	2
67	0
70	0
71	0
74	9
75	11
77	194
78	31
79	44
80	3
81	0
83	0
86	0
87	0
89	3
92	64
93	4
94	1
95	0
96	0
98	0
100	0
101	1
106	999
107	62
108	3
109	0
110	0
111	0
115	0
116	0
117	0
118	1
119	1
121	12
122	1
123	0
124	0
127	0
128	0
130	0
131	0
135	185
136	6
137	1
138	0
139	0
140	0
141	0
142	0
148	0
149	0
150	2
151	0
152	1
153	0
165	2
166	0
167	1
168	1
169	0
170	0
171	0
180	0
181	0
189	0
195	0
196	0
197	0
205	0
206	0
208	0
209	0
210	0
211	0
212	0
217	0
224	0
225	0
227	0
238	0
239	5
241	290
242	43
243	4
244	0
