Mass Spectrum: 17-(1,5-Dimethylhexyl)-10,13-dimethylhexadecahydrocyclopenta[a]phenanthren-6-ol
Formula: C27H48O
CAS: 60384-06-7
Molecular weight: 388
m/z	intensity
26	2
27	40
28	11
29	147
30	3
31	8
39	28
40	9
41	445
42	50
43	985
44	31
45	9
50	1
51	2
52	2
53	60
54	26
55	999
56	95
57	623
58	25
59	6
61	2
63	1
65	16
66	16
67	498
68	161
69	572
70	64
71	275
72	15
73	2
74	3
75	1
77	69
78	21
79	349
80	82
81	791
82	167
83	356
84	44
85	53
86	4
87	1
88	2
90	2
91	216
92	60
93	453
94	266
95	900
96	234
97	522
98	47
99	13
100	3
101	2
102	2
103	8
104	11
105	243
106	98
107	452
108	248
109	564
110	106
111	161
112	16
113	10
114	5
115	10
116	6
117	50
118	32
119	185
120	163
121	326
122	165
123	435
124	186
125	491
126	58
127	19
128	12
129	22
130	12
131	92
132	30
133	201
134	110
135	275
136	86
137	97
138	69
139	32
140	5
141	7
142	6
143	29
144	18
145	142
146	45
147	216
148	149
149	238
150	45
151	55
152	67
153	16
154	2
155	5
156	6
157	29
158	21
159	131
160	68
161	161
162	69
163	115
164	81
165	102
166	80
167	34
168	4
169	4
170	2
171	26
172	15
173	72
174	33
175	76
176	24
177	65
178	40
179	25
180	6
181	2
183	4
184	2
185	24
186	13
187	64
188	23
189	47
190	15
191	59
192	20
193	22
194	4
195	2
197	5
198	3
199	35
200	20
201	99
202	31
203	58
204	15
205	29
206	30
207	13
208	7
209	2
211	3
212	3
213	101
214	56
215	503
216	422
217	223
218	67
219	68
220	20
221	5
222	1
225	1
226	1
227	17
228	34
229	64
230	141
231	122
232	43
233	505
234	146
235	58
236	10
237	1
239	3
240	1
241	13
242	9
243	21
244	30
245	27
246	26
247	60
248	165
249	44
250	7
251	2
253	5
254	3
255	62
256	21
257	70
258	23
259	23
260	16
261	18
262	36
263	23
264	19
265	4
269	2
270	1
271	6
272	5
273	45
274	30
275	27
276	6
277	2
283	10
284	3
285	14
286	6
287	18
288	8
289	6
290	8
291	42
292	13
293	3
297	2
299	6
300	9
301	16
302	6
303	18
304	7
305	1
311	3
312	3
313	19
314	15
315	9
316	4
317	4
318	3
319	1
325	2
326	3
327	13
328	9
329	20
330	10
331	357
332	92
333	13
334	1
339	2
340	2
341	2
342	26
343	9
344	12
345	17
346	4
351	1
352	1
353	58
354	20
355	258
356	74
357	15
358	3
359	1
366	2
367	8
368	166
369	68
370	450
371	505
372	125
373	83
374	21
375	2
384	2
385	2
386	137
387	45
388	398
389	113
390	18
391	1
