Mass Spectrum: 1,4-Diacetyl-1,4-dihydroquinoxaline
Formula: C12H12N2O2
CAS: 60389-44-8
Molecular weight: 216
m/z	intensity
43	999
50	30
51	30
76	100
77	130
103	50
104	30
131	950
173	210
174	370
216	20
