Mass Spectrum: DL-Glutamic acid, N-[4-[[(2,4-diamino-6-pteridinyl)methyl]methylamino]benzoyl]-
Formula: C20H22N8O5
CAS: 60388-53-6
Molecular weight: 454
m/z	intensity
12	1
14	2
15	7
16	9
17	3
18	9
25	1
26	13
27	35
28	224
29	25
30	17
31	4
32	5
36	3
37	4
38	9
39	36
40	10
41	275
42	31
43	41
44	167
45	21
46	3
50	9
51	19
52	12
53	15
54	20
55	34
56	69
57	10
58	1
60	6
61	8
62	3
63	9
64	9
65	28
66	24
67	12
68	10
69	8
70	2
71	4
73	10
74	7
75	5
76	7
77	55
78	19
79	59
80	23
81	8
82	23
83	27
84	999
85	52
86	4
88	2
90	2
91	6
92	7
93	6
94	3
95	4
96	3
97	4
99	1
101	4
102	2
103	2
104	16
105	11
106	140
107	102
108	21
109	4
110	2
111	3
115	1
117	1
118	2
119	2
120	9
121	9
122	5
123	2
124	1
125	2
128	2
129	38
130	10
131	6
132	14
133	21
134	223
135	42
136	5
137	5
139	1
140	1
141	2
146	1
147	1
148	20
149	15
150	174
151	290
152	29
153	3
157	1
158	1
159	6
160	4
161	2
162	1
163	1
164	5
165	2
175	80
176	335
177	39
178	3
184	1
190	1
194	1
203	1
216	2
222	2
261	7
262	5
263	1
277	2
278	11
279	2
281	6
282	1
325	8
326	2
354	1
