Mass Spectrum: Cholestan-7-one, 3-(acetyloxy)-, (3.beta.,5.alpha.)-
Formula: C29H48O3
CAS: 6038-71-7
Molecular weight: 444
m/z	intensity
39	30
40	20
41	290
42	50
43	999
44	40
45	10
53	40
54	10
55	280
56	30
57	170
58	10
60	10
61	20
65	10
66	10
67	140
68	40
69	150
70	10
71	60
77	50
78	10
79	140
80	30
81	180
82	40
83	60
84	10
85	10
91	90
92	20
93	250
94	70
95	180
96	30
97	30
105	80
106	30
107	150
108	60
109	120
110	20
111	20
115	10
117	20
118	10
119	60
120	20
121	100
122	50
123	50
124	10
125	10
129	10
131	30
132	10
133	60
134	30
135	80
136	50
137	50
138	20
139	10
143	10
144	10
145	50
146	20
147	60
148	20
149	50
150	160
151	40
152	10
153	10
157	10
158	10
159	50
160	10
161	50
162	20
163	50
164	30
165	10
169	10
171	10
173	20
174	10
175	20
176	40
177	40
178	10
183	10
185	10
187	20
188	10
189	30
190	10
191	10
193	10
197	20
199	10
201	30
202	10
203	10
205	10
206	10
207	10
211	20
212	10
213	10
215	50
216	20
217	20
223	10
227	20
228	10
229	30
230	40
231	20
236	500
237	80
238	10
239	10
243	10
244	10
245	10
247	10
248	10
249	120
250	30
253	70
254	10
255	10
257	10
259	10
261	10
271	10
274	10
275	30
276	30
277	40
278	10
288	10
289	240
290	140
299	40
300	20
301	10
303	40
304	60
305	20
313	80
314	20
315	10
317	10
318	20
319	10
330	20
331	50
332	10
341	10
351	10
355	10
359	20
366	10
368	10
369	10
370	10
384	60
385	20
426	100
427	30
429	30
430	20
444	850
445	260
446	40
