Mass Spectrum: Uridine, 3'-O-methyl-
Formula: C10H14N2O6
CAS: 6038-59-1
Molecular weight: 258
m/z	intensity
26	34
27	48
29	66
31	100
33	57
39	28
40	28
41	86
42	20
43	63
45	114
53	20
54	40
55	51
56	28
57	94
58	51
59	57
60	40
61	28
67	11
68	51
69	114
70	57
71	344
72	20
73	80
74	28
75	80
81	20
82	43
83	40
84	37
85	109
86	37
87	999
88	238
89	23
95	20
96	20
97	43
98	40
99	48
100	94
101	23
110	23
111	11
112	69
113	341
114	63
115	51
116	20
129	71
138	23
141	23
142	11
146	20
147	270
155	48
166	14
167	14
169	23
171	97
172	23
189	40
209	57
240	23
