Mass Spectrum: Methyl 2,3,4,6-tetra-O-acetyl-.alpha.-D-glucopyranoside
Formula: C15H22O10
CAS: 604-70-6
Molecular weight: 362
m/z	intensity
25	0
26	2
27	16
28	7
29	31
30	2
31	22
33	11
34	0
37	0
38	1
39	11
40	3
41	24
42	27
43	999
44	59
45	46
46	2
47	1
50	0
51	1
52	1
53	8
54	5
55	21
56	9
57	21
58	4
59	17
60	18
61	36
62	1
63	0
65	0
66	0
67	2
68	9
69	102
70	111
71	38
72	4
73	43
74	63
75	8
76	0
77	0
78	0
79	1
80	19
81	197
82	19
83	12
84	10
85	72
86	31
87	70
88	5
89	3
90	1
91	1
92	0
93	0
94	1
95	4
96	5
97	75
98	168
99	117
100	18
101	9
102	157
103	152
104	10
105	2
107	0
108	1
109	36
110	5
111	10
112	145
113	29
114	6
115	174
116	67
117	13
118	2
119	0
121	0
122	2
123	5
124	2
125	6
126	13
127	101
128	27
129	34
130	4
131	2
132	1
133	1
135	1
137	2
138	2
139	40
140	108
141	123
142	15
143	5
144	99
145	162
146	14
147	2
149	0
151	0
152	0
153	1
154	1
155	5
156	2
157	148
158	55
159	10
160	1
161	0
164	1
166	2
167	2
168	6
169	109
170	18
171	16
172	1
173	0
174	0
175	0
182	41
183	29
184	3
185	2
186	1
187	10
188	0
189	0
195	0
198	2
199	38
200	117
201	29
202	3
203	0
205	0
210	3
211	11
212	1
213	0
214	0
215	10
216	1
217	3
218	0
222	0
228	1
229	6
230	0
242	83
243	104
244	17
245	3
246	0
259	6
260	1
271	6
272	0
273	0
287	0
289	17
290	2
291	0
302	2
303	3
304	0
319	0
331	80
332	14
333	2
334	0
345	0
361	1
362	0
