Mass Spectrum: photocitral B
Formula: C10H16O
CAS: 6040-45-5
Molecular weight: 152
m/z	intensity
39	410
41	699
55	500
67	400
69	799
79	400
81	999
83	649
84	400
95	450
109	699
123	849
137	749
152	50
