Mass Spectrum: 2-Acetonylcyclopentanone
Formula: C8H12O2
CAS: 60415-94-3
Molecular weight: 140
m/z	intensity
26	17
27	110
28	90
29	36
31	4
32	28
35	0
37	3
38	11
39	122
40	27
41	323
42	38
43	999
44	24
45	6
47	5
49	8
50	7
51	13
52	6
53	29
54	20
55	137
56	22
57	10
58	59
59	6
60	1
62	1
63	4
65	8
66	6
67	25
68	14
69	157
70	90
71	19
72	2
73	1
75	0
77	7
78	2
79	27
80	23
81	12
82	31
83	300
84	46
85	5
86	14
88	2
91	2
93	2
94	4
95	10
96	18
97	288
98	154
99	12
100	1
107	3
110	1
111	7
112	3
113	0
121	1
122	2
123	1
125	13
138	2
140	95
141	10
