Mass Spectrum: Cycloheptanecarboxylic acid, methyl ester
Formula: C9H16O2
CAS: 60433-00-3
Molecular weight: 156
m/z	intensity
25	0
26	22
27	259
28	72
29	218
30	16
31	30
33	8
37	3
38	14
39	331
40	66
41	420
42	69
43	108
44	6
45	26
46	2
47	1
50	10
51	27
52	13
53	113
54	118
55	999
56	68
57	30
58	4
59	139
60	6
61	8
62	3
63	7
64	1
65	28
66	20
67	159
68	77
69	106
70	24
71	18
72	7
73	13
74	280
75	48
76	2
77	24
78	9
79	29
80	26
81	157
82	178
83	79
84	5
85	24
87	254
88	48
89	4
90	0
91	10
92	2
93	11
94	6
95	70
96	371
97	247
98	20
99	12
100	35
101	50
102	17
103	1
105	1
106	9
107	2
109	12
110	1
111	2
113	339
114	62
115	10
116	1
121	0
122	3
124	283
125	104
126	8
127	43
128	6
129	0
141	30
142	3
154	0
155	4
156	69
157	8
158	1
