Mass Spectrum: 4,5-Heptadien-2-ol, 3,3,6-trimethyl-
Formula: C10H18O
CAS: 60432-69-1
Molecular weight: 154
m/z	intensity
25	5
27	139
28	18
29	101
31	11
38	10
39	245
40	50
41	508
42	52
43	493
44	20
45	254
50	28
51	110
52	42
53	218
54	29
55	398
56	35
57	54
59	35
63	29
65	86
66	29
67	999
68	81
69	240
70	74
71	40
72	11
77	166
78	40
79	208
80	42
81	333
82	35
83	46
84	7
85	7
86	28
87	17
91	125
92	18
93	129
94	83
95	445
96	37
97	62
98	5
99	7
103	4
105	54
106	17
107	66
108	20
109	476
110	159
111	740
112	63
118	8
121	130
122	14
123	13
124	9
125	2
135	2
136	3
137	16
139	58
140	11
154	212
155	24
