Mass Spectrum: Methyl (S)-2,2-dimethyl-1,3-dioxolane-4-carboxylate
Formula: C7H12O4
CAS: 60456-21-5
Molecular weight: 160
m/z	intensity
14	3
15	46
26	7
27	31
28	16
29	38
30	7
31	36
32	3
33	21
37	2
38	4
39	41
40	10
41	94
42	52
43	999
44	30
45	16
53	2
54	5
55	26
56	2
57	10
58	26
59	118
60	9
61	97
62	4
63	2
68	1
69	7
70	4
71	41
72	42
73	177
74	9
75	16
83	26
84	2
85	12
86	7
87	2
89	5
90	40
91	3
94	1
95	1
98	1
99	2
100	2
101	453
102	28
103	24
104	1
113	1
115	3
117	39
118	3
119	1
130	7
131	3
141	1
143	1
144	1
145	817
146	60
147	10
148	1
159	3
160	1
161	1
