Mass Spectrum: 1,4-Dithiepane-2-butanal, 3-oxo-
Formula: C9H14O2S2
CAS: 60450-07-9
Molecular weight: 218
m/z	intensity
26	22
27	283
28	53
29	217
30	12
31	28
33	4
34	4
35	5
36	2
37	6
38	16
39	213
40	36
41	526
42	85
43	237
44	36
45	314
46	161
47	118
48	10
49	8
50	15
51	26
52	11
53	70
54	37
55	365
56	85
57	237
58	53
59	109
60	141
61	53
62	8
63	9
64	59
65	43
66	18
67	67
68	56
69	107
70	47
71	103
72	49
73	172
74	227
75	79
76	32
77	36
78	28
79	32
80	11
81	69
82	38
83	128
84	169
85	85
86	17
87	208
88	85
89	24
90	6
91	46
92	12
93	26
94	13
95	42
96	20
97	53
98	29
99	48
100	24
101	28
102	20
103	14
104	19
105	55
106	999
107	89
108	90
109	29
110	16
111	38
112	29
113	26
114	9
115	75
116	38
117	17
118	9
119	730
120	49
121	84
122	12
123	26
124	11
125	19
126	10
127	15
128	9
129	22
130	6
131	9
132	10
133	59
134	27
135	19
136	9
137	23
138	12
139	16
140	7
141	11
142	4
143	11
144	5
145	86
146	26
147	18
148	11
149	8
150	5
151	2
152	6
153	10
154	7
155	11
156	6
157	14
158	4
159	11
160	5
161	15
162	12
163	30
164	7
165	40
166	13
167	10
168	8
169	6
170	5
171	5
172	21
173	12
184	2
185	9
186	4
187	5
188	2
189	8
190	318
191	33
192	30
193	10
216	8
217	3
218	407
219	55
220	47
221	13
