Mass Spectrum: Benzimidazo[2,1-b]naphtho[2,3-d]thiazole-7,12-dione
Formula: C17H8N2O2S
CAS: 60463-65-2
Molecular weight: 304
m/z	intensity
33	108
36	6
37	13
38	72
39	170
40	82
43	36
44	18
45	39
50	386
51	96
52	57
53	10
61	10
62	75
63	95
64	127
69	50
70	78
73	6
74	100
76	999
77	98
81	32
82	7
87	23
88	115
89	15
90	187
93	57
94	31
96	11
100	27
101	49
102	125
103	17
104	332
105	49
107	36
110	7
114	81
120	192
124	15
128	91
130	8
132	87
134	25
136	6
138	15
145	10
146	128
152	53
158	17
176	67
177	12
184	6
188	5
190	69
191	6
203	10
204	20
215	13
247	6
248	12
276	11
303	13
304	648
305	105
306	47
