Mass Spectrum: 2-[2-[2-[2-[2-[2-[2-[2-(2-Methoxyethoxy)ethoxy]ethoxy]ethoxy]ethoxy]ethoxy]ethoxy]ethoxy]ethanol
Formula: C19H40O10
CAS: 6048-68-6
Molecular weight: 428
m/z	intensity
15	9
19	6
26	3
27	18
28	50
29	90
30	12
31	87
32	2
33	3
39	1
40	1
41	27
42	32
43	173
44	119
45	999
46	24
47	3
55	4
56	7
57	37
58	254
59	940
60	36
61	12
62	1
63	1
67	1
68	1
69	8
70	36
71	47
72	127
73	191
74	12
75	32
76	3
77	13
78	1
79	1
80	7
81	1
83	3
84	3
85	6
86	42
87	384
88	122
89	689
90	33
91	9
92	1
95	1
96	1
97	2
98	1
99	8
100	8
101	79
102	60
103	523
104	34
105	14
106	1
107	4
112	1
113	13
114	10
115	22
116	15
117	65
118	9
119	12
120	3
121	24
122	2
124	1
127	1
128	1
129	3
130	2
131	116
132	13
133	317
134	21
135	5
141	1
143	1
145	9
146	2
147	109
148	9
149	2
151	3
157	4
158	2
159	14
160	2
161	5
162	1
163	10
164	1
165	7
166	1
174	1
175	46
176	5
177	58
178	5
179	1
189	3
190	1
191	7
192	1
193	1
195	2
201	4
202	1
203	4
204	1
205	1
207	7
208	1
209	4
210	1
219	8
220	1
221	9
222	1
233	1
235	1
239	1
245	1
247	1
251	4
252	1
253	2
263	1
265	2
295	2
297	1
309	1
339	1
341	1
385	1
