Mass Spectrum: p-Heptylbenzonitrile
Formula: C14H19N
CAS: 60484-67-5
Molecular weight: 201
m/z	intensity
26	1
27	31
28	6
29	50
30	1
38	1
39	24
40	3
41	87
42	11
43	403
44	12
50	3
51	7
52	3
53	5
54	2
55	27
56	14
57	57
58	2
62	2
63	10
64	4
65	5
66	1
67	2
68	1
69	6
70	5
71	1
75	5
76	6
77	17
78	3
79	1
81	1
82	4
83	5
84	1
85	37
86	2
88	3
89	68
90	40
91	7
92	1
95	1
96	5
97	1
98	1
101	5
102	11
103	27
104	24
105	3
109	1
110	1
114	3
115	9
116	231
117	999
118	100
119	9
120	1
122	3
127	2
128	8
129	26
130	50
131	14
132	2
135	1
140	3
141	1
142	5
143	5
144	17
145	11
146	2
157	1
158	28
159	8
160	1
172	6
173	2
174	1
186	2
187	1
200	3
201	213
202	37
203	3
