Mass Spectrum: .alpha.-D-Glucopyranoside, methyl 2,3,4,6-tetra-O-methyl-
Formula: C11H22O6
CAS: 605-81-2
Molecular weight: 250
m/z	intensity
25	0
26	3
27	42
28	15
29	85
30	6
31	42
32	2
33	26
34	0
36	0
37	0
38	1
39	24
40	4
41	88
42	19
43	42
44	6
45	387
46	7
47	27
48	0
50	0
51	2
52	1
53	18
54	5
55	30
56	10
57	21
58	7
59	55
60	2
61	6
62	0
63	0
64	0
65	1
66	0
67	3
68	7
69	16
70	4
71	182
72	23
73	185
74	36
75	533
76	15
77	2
79	0
81	7
82	2
83	9
84	7
85	33
86	3
87	8
88	999
89	83
90	6
91	0
95	9
96	1
97	6
98	9
99	12
100	1
101	419
102	36
103	9
104	0
105	0
111	22
112	2
113	4
114	5
115	6
116	2
117	7
118	1
119	2
123	0
125	1
126	0
127	16
128	1
129	4
130	0
131	10
132	1
133	0
139	0
141	1
142	2
143	4
144	1
145	8
146	0
149	34
150	2
151	0
155	4
156	0
157	1
158	0
159	2
160	0
173	1
176	6
177	0
187	11
188	1
189	0
203	0
219	0
