Mass Spectrum: N-(4-Methylcyclohexyl)acetamide, cis-
Formula: C9H17NO
CAS: 60504-06-5
Molecular weight: 155
m/z	intensity
35	2
36	4
37	1
38	9
39	79
40	45
41	162
42	102
43	554
44	53
45	4
47	4
48	2
49	1
50	4
51	9
52	6
53	31
54	70
55	136
56	779
57	78
58	14
59	28
60	999
61	30
62	3
63	3
64	1
65	9
66	7
67	52
68	39
69	39
70	32
71	14
72	10
73	5
76	0
77	11
78	4
79	14
80	11
81	134
82	24
83	22
84	22
85	24
86	6
87	4
91	5
92	1
93	6
94	6
95	31
96	46
97	17
98	211
99	20
100	4
105	0
106	1
109	1
110	4
111	5
112	25
113	7
114	0
118	1
126	4
127	1
131	0
133	1
138	2
139	1
140	8
153	0
154	5
155	157
156	15
157	1
