Mass Spectrum: Weinsaeureanilid
Formula: C10H11NO5
CAS: 6051-31-6
Molecular weight: 225
m/z	intensity
12	2
13	1
14	6
15	38
16	4
17	5
18	15
19	51
20	0
25	0
26	7
27	19
28	34
29	138
30	34
31	99
32	2
33	0
35	0
36	0
37	6
38	23
39	105
40	23
41	29
42	58
43	63
44	27
45	42
46	5
47	3
49	10
50	28
51	117
52	28
53	10
54	11
55	4
56	2
57	3
58	18
59	66
60	59
61	30
62	9
63	39
64	45
65	156
66	165
67	24
68	3
69	19
70	81
71	59
72	2
73	2
74	10
75	9
76	25
77	338
78	37
79	11
80	2
81	7
82	1
83	1
84	1
85	0
87	8
88	99
89	11
90	8
91	47
92	152
93	999
94	236
95	18
96	1
97	0
98	0
99	1
100	0
101	0
102	1
103	2
104	22
105	15
106	7
107	7
108	2
109	0
110	0
111	0
112	1
113	0
114	0
115	1
116	2
117	2
119	402
120	168
121	36
122	33
123	3
124	0
125	0
128	0
129	1
130	0
132	16
133	11
134	5
135	2
136	0
137	3
138	2
139	0
143	0
144	1
145	1
146	3
147	1
148	1
149	5
150	99
151	51
152	5
153	0
155	0
157	0
158	0
159	0
160	0
161	1
162	9
163	8
164	24
165	2
166	0
167	0
170	0
171	0
173	1
174	0
175	0
176	0
177	0
178	0
180	31
181	3
182	0
183	0
184	0
185	1
186	0
187	0
189	1
190	0
191	1
192	0
193	0
194	0
195	0
199	0
201	0
203	0
205	0
207	1
208	1
209	0
211	0
217	0
219	0
220	0
221	0
222	0
223	0
225	255
226	30
227	4
228	0
