Mass Spectrum: Benzenemethanol, .alpha.-ethenyl-.alpha.-methyl-
Formula: C10H12O
CAS: 6051-52-1
Molecular weight: 148
m/z	intensity
26	9
27	114
28	9
29	9
31	10
36	2
37	0
38	11
39	116
40	44
41	29
42	7
43	999
44	26
45	15
46	0
47	5
50	21
51	113
52	27
53	28
54	4
55	379
56	16
57	3
58	2
59	8
60	2
62	1
63	22
64	6
65	126
66	78
67	7
68	3
69	6
70	7
71	44
72	1
73	4
75	7
76	0
77	335
78	163
79	131
80	14
81	2
83	2
87	2
88	0
89	20
90	6
91	382
92	44
93	9
94	414
95	29
96	1
97	1
98	1
99	1
100	1
101	5
102	23
103	74
104	105
105	803
106	89
107	56
108	7
109	1
111	2
113	2
114	3
115	100
116	18
117	9
118	3
119	7
120	66
121	77
122	23
123	2
125	1
126	6
127	24
128	48
129	57
130	42
131	27
132	9
133	369
134	38
135	2
139	6
140	1
141	3
142	3
145	2
146	4
147	43
148	627
149	69
150	7
