Mass Spectrum: Bromodichloroacetonitrile
Formula: C2BrCl2N
CAS: 60523-73-1
Molecular weight: 187
m/z	intensity
35	57
47	98
49	32
79	58
81	52
82	14
84	9
91	15
93	15
108	999
109	16
110	672
112	100
126	29
128	39
130	9
152	198
154	243
156	55
