Mass Spectrum: Benzeneethanol, .beta.-ethenyl-
Formula: C10H12O
CAS: 6052-63-7
Molecular weight: 148
m/z	intensity
27	9
28	11
29	5
30	1
31	19
32	2
36	0
38	0
39	34
40	2
41	12
42	1
43	9
44	0
45	3
46	0
47	2
49	0
50	2
51	20
52	6
53	5
54	0
55	6
56	0
58	1
59	3
60	0
61	2
62	0
63	8
64	2
65	47
66	3
67	1
68	0
69	1
70	1
75	11
76	6
77	47
78	24
79	10
80	1
81	0
82	0
87	4
88	1
89	22
90	5
91	240
92	25
93	2
94	0
95	0
101	2
102	15
103	72
104	16
105	10
106	1
107	6
108	1
113	3
114	4
115	483
116	124
117	999
118	626
119	55
120	4
121	1
122	3
123	0
126	0
127	5
128	12
129	12
130	11
131	7
132	1
133	2
135	0
145	1
146	1
147	2
148	19
149	3
150	0
