Mass Spectrum: Satratoxin H, diacetate
Formula: C33H40O11
CAS: 60538-74-1
Molecular weight: 612
m/z	intensity
39	167
43	999
44	160
45	51
53	102
55	116
60	73
67	102
69	65
77	80
79	211
80	73
81	350
82	58
87	138
91	197
93	153
95	153
97	73
105	306
106	51
107	175
108	80
109	138
110	226
111	138
117	102
119	80
121	116
123	87
125	73
127	58
128	73
131	102
133	80
135	87
136	65
139	65
143	65
145	124
147	87
149	73
153	138
157	58
159	94
161	73
166	58
171	58
173	109
175	65
185	73
187	65
189	124
201	124
202	65
203	102
209	277
212	87
217	401
218	204
219	240
231	518
232	102
235	620
236	109
245	80
247	87
268	146
443	219
444	73
525	102
612	197
613	87
614	43
