Mass Spectrum: Spiro[androst-5-ene-17,1'-cyclobutan]-2'-one, 3-hydroxy-, (3.beta.,17.beta.)-
Formula: C22H32O2
CAS: 60534-16-9
Molecular weight: 328
m/z	intensity
39	220
41	999
42	270
43	999
44	130
45	450
49	80
51	90
53	210
54	110
55	760
56	160
57	520
60	220
65	100
67	320
68	140
69	610
70	120
71	190
73	190
77	260
78	70
79	360
80	70
81	350
82	90
83	180
84	80
85	100
91	380
92	80
93	230
94	80
95	210
96	60
97	130
105	250
106	60
107	260
108	70
109	120
111	60
115	70
117	80
119	170
120	80
121	120
129	100
131	100
133	130
143	70
145	130
147	90
149	90
157	50
159	90
161	70
175	60
253	70
254	70
271	160
272	140
285	60
328	40
