Mass Spectrum: 4-(Benzyloxy)-5-methoxy-2-nitrobenzoic acid
Formula: C15H13NO6
CAS: 60547-92-4
Molecular weight: 303
m/z	intensity
29	64
30	93
31	13
37	2
38	4
39	28
40	33
41	27
42	6
43	40
44	36
45	8
46	1
50	15
51	32
52	6
53	9
54	3
55	21
56	6
57	20
58	4
60	5
61	2
62	6
63	14
64	7
65	80
66	7
67	6
68	3
69	16
70	6
71	10
73	9
74	3
75	2
76	2
77	23
78	13
79	12
80	7
81	8
82	8
83	10
84	5
85	6
87	3
89	16
90	11
91	999
92	80
93	6
94	2
95	9
96	4
97	7
98	6
99	3
105	16
106	5
107	3
108	1
109	4
110	3
111	5
112	4
113	2
115	4
121	2
122	2
123	12
124	2
125	3
128	1
129	3
135	2
136	21
137	4
138	2
139	3
141	2
146	1
149	7
150	2
151	2
152	4
153	3
164	1
171	3
183	1
185	2
199	1
212	2
256	1
258	2
259	3
273	1
274	5
303	41
304	7
