Mass Spectrum: 3-Pentenenitrile, 4-methyl-2-(trimethylsilyl)-
Formula: C9H17NOSi
CAS: 60550-33-6
Molecular weight: 183
m/z	intensity
39	57
40	12
41	65
42	8
43	62
44	22
45	127
46	14
47	120
48	5
51	15
52	12
53	24
54	11
55	34
56	21
57	20
58	17
59	63
60	19
61	64
63	5
65	17
66	45
67	48
68	6
69	277
70	23
71	6
72	10
73	391
74	54
75	999
76	73
77	40
78	5
83	43
84	123
85	21
86	6
92	7
93	51
94	17
97	10
98	5
99	25
100	52
101	42
102	5
111	8
113	37
114	5
119	10
125	16
126	5
127	11
140	80
141	630
142	81
143	26
152	8
154	11
155	52
156	16
157	14
168	248
169	35
170	10
183	77
184	11
