Mass Spectrum: Phosphine oxide, (1,1-dimethylethyl)phenyl-
Formula: C10H15OP
CAS: 6057-79-0
Molecular weight: 182
m/z	intensity
26	1
27	35
29	121
30	2
36	1
37	0
38	1
39	41
40	3
41	130
42	5
43	1
44	0
45	4
47	181
48	23
49	5
50	13
51	67
52	12
53	5
54	0
55	9
56	7
57	214
58	8
59	0
61	0
62	1
63	4
64	0
65	5
66	0
68	0
69	4
70	1
71	1
72	0
73	3
74	3
75	3
76	4
77	104
78	40
79	999
80	76
81	3
82	1
83	5
85	0
86	0
87	0
88	0
89	1
91	6
92	0
94	0
95	2
96	4
97	1
99	0
100	0
102	0
103	0
104	0
105	1
106	0
107	14
108	25
109	32
110	8
111	0
113	1
115	1
116	0
117	0
119	5
120	0
121	1
122	0
123	2
124	12
125	67
126	818
127	83
128	5
129	0
133	0
137	0
138	0
139	0
140	3
141	0
143	0
146	0
147	0
151	0
153	0
154	11
155	1
160	2
161	0
162	0
165	0
166	1
167	4
168	0
173	0
179	0
180	0
181	3
182	359
183	47
184	3
185	0
186	0
