Mass Spectrum: Dehydroergosterol 3,5-dinitrobenzoate
Formula: C35H44N2O6
CAS: 6059-43-4
Molecular weight: 588
m/z	intensity
41	307
43	863
44	27
45	9
46	3
50	9
53	40
55	754
56	7
57	392
58	11
63	11
65	14
67	196
69	999
70	75
71	60
73	4
74	43
75	86
77	45
79	67
81	233
82	13
83	206
84	16
85	9
91	43
92	9
93	38
94	4
95	100
96	16
97	42
102	4
103	19
105	34
107	58
108	11
109	72
110	3
111	3
115	15
117	19
118	4
119	29
120	10
121	15
123	23
124	7
125	97
126	4
127	4
128	29
129	29
131	16
133	10
135	10
137	14
141	32
142	25
143	34
144	3
145	15
147	5
149	44
151	3
152	4
153	25
154	16
155	60
156	21
157	94
158	15
159	17
165	48
166	35
167	51
168	33
169	55
170	12
171	14
178	35
179	76
180	35
181	58
182	26
183	54
184	13
185	8
191	15
192	14
193	54
194	37
195	146
196	51
197	85
198	23
199	6
203	4
204	3
205	16
206	9
207	68
208	40
209	156
210	39
211	34
212	36
213	4
217	3
218	4
219	19
220	9
221	31
222	18
223	40
224	38
225	24
233	21
234	14
235	65
236	30
237	21
238	7
247	16
248	22
249	123
250	49
251	331
252	69
253	8
263	19
264	3
265	5
277	20
278	5
279	7
291	21
305	3
333	9
361	41
362	7
363	5
374	34
375	14
376	282
377	91
378	19
421	4
447	4
461	4
588	51
589	19
