Mass Spectrum: Benzaldehyde, 2,6-dinitro-
Formula: C7H4N2O5
CAS: 606-31-5
Molecular weight: 196
m/z	intensity
26	11
27	20
28	38
29	60
30	428
31	3
37	54
38	71
39	104
40	3
44	9
45	15
46	11
49	22
50	387
51	67
52	45
53	44
54	2
61	32
62	54
63	173
64	203
65	26
66	37
67	2
73	34
74	238
75	999
76	281
77	50
78	41
79	23
80	32
86	3
87	2
91	139
92	471
93	40
94	6
103	4
105	17
106	4
107	4
108	120
109	7
119	404
120	103
121	10
122	206
123	19
136	296
137	29
149	73
152	1
179	14
195	1
