Mass Spectrum: 8-Hexadecenal, 14-methyl-, (Z)-
Formula: C17H32O
CAS: 60609-53-2
Molecular weight: 252
m/z	intensity
15	2
26	3
27	76
28	19
29	265
30	6
31	7
38	2
39	134
40	24
41	751
42	96
43	428
44	70
45	8
50	3
51	10
52	8
53	113
54	229
55	999
56	245
57	610
58	35
59	6
63	1
65	38
66	32
67	507
68	174
69	510
70	955
71	308
72	21
73	4
77	40
78	14
79	199
80	131
81	425
82	273
83	525
84	207
85	80
86	7
87	1
91	32
92	8
93	147
94	92
95	351
96	263
97	314
98	294
99	33
100	5
101	1
105	8
106	4
107	80
108	66
109	239
110	72
111	186
112	86
113	12
114	2
115	1
119	3
120	5
121	159
122	53
123	126
124	44
125	50
126	17
127	4
133	2
134	2
135	97
136	34
137	42
138	30
139	17
140	8
141	4
149	39
150	10
151	13
152	10
153	7
154	4
155	1
156	1
163	13
164	11
165	5
166	4
167	5
168	2
170	2
177	9
178	2
179	3
180	2
181	2
182	2
191	1
195	5
196	2
205	11
206	3
208	3
209	2
223	19
224	5
234	20
235	4
237	1
252	21
253	4
