Mass Spectrum: D-Fructose, 1,3,4,6-tetra-O-methyl-5-O-(2,3,4,6-tetra-O-methyl-.alpha.-D-glucopyranosyl)-
Formula: C20H38O11
CAS: 60618-00-0
Molecular weight: 454
m/z	intensity
45	769
59	280
71	639
75	569
88	999
99	203
101	799
111	240
115	222
127	167
129	719
131	111
143	93
145	166
155	203
187	280
219	240
235	5
249	37
279	60
409	85
