Mass Spectrum: Ammelide tris-trimethysilyl derivative
Formula: C12H28N4O2Si3
CAS: 60617-57-4
Molecular weight: 344
m/z	intensity
29	2
42	2
43	21
44	22
45	110
46	8
47	6
55	4
56	5
57	7
58	13
59	19
60	2
61	2
69	21
70	27
71	18
72	81
73	999
74	90
75	45
76	2
78	1
83	2
84	6
85	16
86	26
87	6
88	2
98	4
99	141
100	194
101	21
102	10
103	2
111	1
112	2
113	10
114	8
115	10
116	12
117	9
118	2
119	2
124	1
126	6
127	5
128	2
129	3
130	42
131	28
132	13
133	16
134	3
135	1
139	3
140	3
141	14
142	4
143	68
144	9
145	3
146	6
147	61
148	9
149	5
155	14
156	6
157	36
158	7
159	6
160	2
167	1
168	2
170	2
171	475
172	84
173	45
174	8
175	2
181	2
182	3
183	1
184	7
185	8
186	5
187	30
188	14
189	5
190	4
198	97
199	20
200	10
201	2
202	2
212	1
213	1
214	65
215	21
216	7
217	1
228	3
229	2
230	3
239	4
241	23
242	5
243	2
245	4
255	2
256	1
257	2
270	4
271	7
272	4
273	1
286	26
287	8
288	4
313	2
329	281
330	81
331	40
332	8
333	2
343	27
344	571
345	167
346	83
347	15
348	4
