Mass Spectrum: 2,5-Piperazinedione, 3-methyl-
Formula: C5H8N2O2
CAS: 6062-46-0
Molecular weight: 128
m/z	intensity
35	1
36	46
38	23
39	40
40	72
41	133
43	300
45	74
46	9
50	4
51	5
52	5
53	9
54	15
55	85
56	192
57	294
58	38
59	6
60	25
64	2
67	9
68	4
69	34
70	34
71	27
72	63
73	15
77	3
78	1
81	13
82	3
83	11
84	26
85	999
86	48
87	7
91	12
92	1
93	2
95	4
96	2
97	5
98	3
99	37
100	25
104	1
105	3
109	1
111	4
112	3
113	63
114	1
115	6
126	5
127	22
128	438
129	31
130	2
