Mass Spectrum: Phosphine, bis(1,1-dimethylethyl)(2,2-dimethylpropyl)-
Formula: C13H29P
CAS: 60633-21-8
Molecular weight: 216
m/z	intensity
27	4
28	11
29	49
30	1
31	1
32	1
34	0
36	0
38	0
39	6
40	58
41	95
42	4
43	40
44	1
45	1
46	0
47	2
48	29
49	15
50	1
51	1
52	0
53	1
54	0
55	15
56	9
57	999
58	43
59	5
60	2
61	35
62	15
63	1
64	1
69	9
70	6
71	27
72	1
73	3
74	1
75	6
76	2
77	1
78	0
81	0
83	1
85	1
86	0
87	4
88	5
89	47
90	3
91	2
96	0
97	2
99	0
101	1
102	2
103	93
104	421
105	108
106	5
107	0
108	0
109	0
111	0
117	1
118	4
119	0
120	3
121	0
122	0
134	0
135	2
136	1
137	0
139	0
143	0
144	0
145	37
146	4
151	1
159	19
160	199
161	17
162	1
176	1
192	0
201	12
202	1
207	0
216	71
217	10
218	0
