Mass Spectrum: Propanedioic acid, 2-methyl-, ethyl methyl ester
Formula: C7H12O4
CAS: 6065-52-7
Molecular weight: 160
m/z	intensity
39	7
40	2
41	133
42	19
43	160
44	11
45	148
46	2
49	1
53	10
55	307
56	496
57	727
59	779
60	34
61	9
68	2
69	14
71	7
72	25
73	86
74	12
77	3
82	1
83	28
84	3
85	12
87	455
88	784
89	85
90	5
91	1
92	1
99	5
100	20
101	139
102	9
103	1
105	2
110	1
114	146
115	999
116	46
117	7
127	1
128	185
129	347
130	23
131	5
132	197
133	424
134	20
135	3
145	3
160	159
161	19
162	1
