Mass Spectrum: 1-(.beta.-d-5-O-Acetylribofuranosyl)-5-bromouracil
Formula: C11H13BrN2O7
CAS: 60657-56-9
Molecular weight: 364
m/z	intensity
12	4
13	2
14	10
15	70
16	6
17	8
18	22
19	23
24	1
25	5
26	13
27	48
28	107
29	117
30	17
31	66
32	3
33	0
36	2
37	1
38	10
39	35
40	35
41	66
42	53
43	999
44	69
45	48
46	2
47	4
48	1
49	1
50	2
51	5
52	14
53	56
54	19
55	109
56	26
57	124
58	18
59	14
60	25
61	66
62	2
63	1
64	2
65	3
66	4
67	9
68	18
69	67
70	25
71	46
72	4
73	74
74	8
75	2
76	0
77	2
78	1
79	5
80	6
81	12
82	10
83	15
84	10
85	46
86	20
87	14
88	1
89	1
91	14
92	9
93	9
94	12
95	5
96	7
97	254
98	18
99	11
100	2
101	5
102	2
103	9
104	13
105	6
106	15
107	7
108	2
109	2
110	3
111	7
112	5
113	6
114	18
115	200
116	15
117	5
118	10
119	7
120	50
121	6
122	42
123	2
124	1
125	1
126	2
127	16
128	2
129	2
130	1
131	5
132	5
133	27
134	4
135	8
136	2
137	1
139	50
140	5
141	1
143	2
144	1
145	2
146	2
147	55
148	12
149	56
150	10
151	1
153	0
155	1
156	3
157	38
158	4
159	2
160	6
161	6
162	6
163	6
164	2
165	1
171	0
172	0
173	2
174	9
175	167
176	23
177	3
178	3
185	0
186	0
188	3
190	44
191	26
192	40
193	25
194	2
202	1
203	2
204	1
205	1
214	0
215	2
216	2
217	56
218	6
219	3
221	1
226	1
228	1
229	0
231	1
232	1
233	5
234	1
235	4
245	1
247	1
249	1
251	1
257	1
259	7
260	1
261	0
263	0
269	0
271	0
273	1
275	2
286	0
364	6
365	0
366	5
367	0
