Mass Spectrum: 4-Nonene, 5-nitro-
Formula: C9H17NO2
CAS: 6065-01-6
Molecular weight: 171
m/z	intensity
14	20
15	66
16	8
17	19
18	61
24	1
25	3
26	37
27	542
28	182
29	356
30	93
31	20
32	8
36	2
37	8
38	20
39	320
40	62
41	999
42	100
43	312
44	28
45	16
46	6
50	18
51	47
52	34
53	177
54	107
55	754
56	63
57	187
58	15
59	35
60	14
61	2
62	4
63	11
64	4
65	38
66	21
67	229
68	51
69	700
70	54
71	39
72	11
73	12
74	4
75	3
76	2
77	36
78	12
79	48
80	16
81	170
82	54
83	105
84	36
85	34
86	9
87	2
88	4
89	2
91	10
92	3
93	10
94	11
95	55
96	33
97	15
98	13
99	19
100	45
101	24
102	6
108	3
109	7
110	8
111	17
112	16
113	7
114	4
115	2
116	2
122	2
123	8
124	14
125	22
126	13
128	4
129	24
130	3
138	2
139	2
142	38
143	5
154	28
155	5
171	5
