Mass Spectrum: Pentanoic acid, 3-hydroxy-2-methyl-, methyl ester
Formula: C7H14O3
CAS: 60665-94-3
Molecular weight: 146
m/z	intensity
31	369
33	54
37	3
38	5
39	81
40	18
41	216
42	23
43	119
44	5
45	132
46	3
50	2
51	4
52	3
53	20
54	8
55	124
56	342
57	999
58	97
59	339
60	25
61	107
62	2
63	1
65	3
66	0
67	13
68	9
69	108
70	10
71	12
72	3
73	12
74	6
79	1
81	5
83	2
84	2
85	360
86	19
87	102
88	942
89	42
90	3
95	2
96	4
97	27
98	2
99	14
100	0
101	1
113	21
114	3
115	67
116	5
117	133
118	7
119	0
128	14
129	4
131	14
132	0
145	0
