Mass Spectrum: Borinic acid, diethyl-, 2-ethyl-1-butenyl ester
Formula: C10H21BO
CAS: 60671-96-7
Molecular weight: 168
m/z	intensity
25	0
26	49
27	186
28	145
29	233
30	3
31	4
36	2
37	11
38	13
39	131
40	58
41	448
42	41
43	282
48	0
50	5
51	13
52	10
53	55
54	27
55	999
56	96
57	202
58	9
59	8
60	1
61	0
62	0
63	2
64	1
65	10
66	4
67	47
68	20
69	121
70	16
71	75
72	58
73	2
74	0
76	0
77	1
79	6
80	1
81	12
82	10
83	597
84	41
85	20
86	7
87	0
88	1
91	1
93	0
94	0
95	3
96	2
97	7
98	1
99	0
100	16
101	0
102	0
106	0
108	0
109	2
110	2
111	3
112	1
115	1
122	0
123	2
124	12
125	27
126	1
127	2
128	0
130	0
137	2
138	16
139	68
140	6
141	0
152	3
153	10
154	1
155	0
166	0
167	35
168	137
169	15
170	0
