Mass Spectrum: Diphenylacetylpyrrolidine
Formula: C18H19NO
CAS: 60678-46-8
Molecular weight: 265
m/z	intensity
39	11
41	12
43	13
44	23
45	13
55	190
56	38
57	10
69	10
70	13
98	999
99	56
115	22
139	10
144	10
151	6
152	83
153	10
160	4
163	8
164	15
165	180
166	53
167	210
168	32
169	3
263	1
264	2
265	140
266	18
267	2
