Mass Spectrum: Acetic acid, chloro-, 2-ethoxyethyl ester
Formula: C6H11ClO3
CAS: 60682-94-2
Molecular weight: 166
m/z	intensity
41	75
42	248
43	295
44	278
45	337
46	9
47	15
48	28
49	339
50	22
51	112
52	5
53	1
55	6
56	2
57	22
58	8
59	999
60	38
61	10
62	1
63	4
64	2
65	3
66	0
67	2
68	1
69	3
70	1
72	644
73	55
74	5
75	3
76	40
77	496
78	27
79	160
80	5
81	2
82	1
83	2
84	1
85	1
86	75
87	5
88	1
89	6
90	0
91	1
92	1
93	1
94	24
95	30
96	8
97	11
98	1
99	0
100	0
101	0
102	0
103	1
104	0
105	1
106	1
107	9
108	24
109	6
110	9
111	2
112	0
113	1
115	1
116	0
117	3
118	0
119	1
120	4
121	191
122	51
123	67
124	17
125	2
126	0
127	0
128	1
129	0
130	0
131	1
132	0
133	1
134	0
135	1
136	0
137	5
138	1
139	2
140	1
141	0
142	0
143	0
144	0
145	0
146	0
147	0
148	0
149	1
151	2
152	1
153	0
154	0
165	1
166	3
167	1
168	1
169	0
