Mass Spectrum: 2,3-Dimethoxy-5-methyl-6-dekaisoprenyl-chinon
Formula: C59H90O4
CAS: 60684-33-5
Molecular weight: 862
m/z	intensity
14	7
15	38
16	12
17	21
18	72
26	14
27	78
28	67
29	124
30	10
31	32
32	29
36	9
38	15
39	117
40	30
41	523
42	53
43	207
44	48
45	20
50	15
51	30
52	20
53	115
54	31
55	326
56	35
57	90
58	10
59	10
60	23
63	12
64	7
65	41
66	20
67	225
68	197
69	999
70	70
71	41
73	17
74	9
77	89
78	21
79	166
80	57
81	686
82	81
83	86
84	15
85	18
87	7
89	7
91	178
92	47
93	317
94	82
95	352
96	50
97	58
98	20
99	14
103	19
104	10
105	177
106	48
107	264
108	60
109	202
110	31
111	38
112	12
113	12
115	27
116	14
117	32
118	15
119	152
120	48
121	236
122	69
123	146
124	27
125	23
126	14
127	19
128	20
129	31
130	14
131	42
132	24
133	98
134	59
135	232
136	87
137	90
138	19
139	13
140	9
141	15
142	12
143	24
144	14
145	71
146	24
147	98
148	37
149	97
150	29
151	27
152	12
153	30
154	23
155	17
156	9
157	30
158	15
159	64
160	21
161	80
162	23
163	55
164	15
165	13
166	7
167	18
168	14
169	30
170	12
171	25
172	12
173	43
174	25
175	48
176	20
177	38
178	18
179	12
181	25
182	17
183	26
184	29
185	20
186	8
187	36
188	17
189	59
190	18
191	31
192	10
193	15
194	8
195	10
196	134
197	541
198	75
199	24
200	8
201	31
202	27
203	46
204	18
205	21
206	9
207	10
208	9
209	10
210	10
211	18
212	7
213	10
214	7
215	15
216	7
217	19
218	8
219	17
220	9
221	19
222	6
223	9
225	6
227	8
229	9
231	6
233	9
234	9
235	219
236	33
237	31
238	7
239	6
241	6
243	7
245	6
247	4
248	4
249	6
250	10
251	4
252	10
253	4
255	6
256	3
257	8
258	4
259	4
260	4
261	6
262	7
263	7
264	7
265	3
267	3
269	4
270	3
271	6
272	3
273	4
274	3
275	7
276	2
277	3
283	2
285	3
299	3
301	3
303	2
313	2
315	2
316	2
317	2
318	4
319	2
320	4
325	2
327	2
328	2
332	2
337	2
339	3
340	2
341	2
384	2
386	2
388	3
389	1
395	1
407	1
408	1
409	1
452	1
454	2
456	3
523	2
525	2
591	2
593	2
727	1
729	2
730	1
