Mass Spectrum: 2,2,3,3,7,7,8,8-Octamethyl-1,4,6,9-tetraoxa-5-tellura-spiro[4.4]nonan
Formula: C12H24O4Te
CAS: 6069-58-5
Molecular weight: 362
m/z	intensity
12	1
13	1
14	10
15	170
16	3
17	8
18	32
19	0
25	0
26	7
27	62
28	16
29	86
30	2
31	36
32	0
36	0
37	0
38	2
39	46
40	8
41	153
42	45
43	999
44	24
45	9
46	0
50	0
51	1
52	0
53	8
54	3
55	99
56	11
57	308
58	39
59	75
60	3
61	0
64	0
65	2
66	1
67	12
68	2
69	34
70	3
71	3
72	0
73	6
74	0
77	0
79	3
80	0
81	2
83	635
84	49
85	37
86	3
87	0
91	0
95	1
96	1
97	2
98	1
99	5
100	1
101	10
102	1
120	0
122	10
123	4
124	20
125	33
126	81
128	143
130	153
131	4
136	11
137	5
138	21
139	34
140	85
141	9
142	147
143	15
144	153
145	19
146	9
147	12
148	0
153	1
154	1
155	2
156	8
157	7
158	12
159	21
160	33
161	10
162	59
163	4
164	61
165	2
166	2
167	1
168	3
169	2
170	3
171	3
172	1
173	2
174	0
175	2
176	3
177	7
178	1
179	13
180	5
181	19
182	13
183	18
184	34
185	12
186	58
187	14
188	54
189	8
190	1
195	1
196	0
197	1
198	1
199	3
200	2
201	4
202	4
203	4
204	3
205	1
213	0
215	0
217	1
219	1
220	0
221	2
222	1
223	2
224	4
225	7
226	5
227	11
228	5
229	14
230	1
231	3
236	1
238	23
239	13
240	43
241	73
242	178
243	35
244	273
245	53
246	288
247	58
248	4
249	0
257	1
258	1
259	2
260	3
261	8
262	0
263	13
264	0
265	12
266	1
299	0
300	1
302	2
303	0
304	2
339	1
340	0
341	2
342	3
343	8
344	1
345	13
346	1
347	13
348	1
359	0
361	0
363	0
