Mass Spectrum: Phenol, 2,4,6-tribromo-, acetate
Formula: C8H5Br3O2
CAS: 607-95-4
Molecular weight: 370
m/z	intensity
36	20
37	23
38	8
39	6
41	13
42	36
43	999
44	25
45	6
49	6
50	4
51	1
53	14
54	2
55	1
56	2
57	10
60	13
61	70
62	153
63	34
64	0
65	0
68	1
70	3
71	5
73	11
74	25
75	4
76	1
77	3
79	5
80	5
81	6
82	2
90	5
91	14
93	2
96	1
101	0
104	4
105	1
110	4
111	7
112	1
115	2
116	10
117	7
118	8
119	5
124	0
125	4
130	1
140	11
141	75
142	17
143	80
144	5
153	7
154	0
155	2
158	1
165	1
166	3
169	5
171	14
172	8
173	6
195	4
196	0
197	16
199	6
203	0
220	13
221	10
222	27
223	15
224	14
225	8
234	5
236	1
248	11
249	4
250	26
251	6
252	13
253	1
299	10
301	21
303	21
305	7
313	1
315	2
326	0
328	222
330	531
331	37
332	533
333	31
334	175
370	13
371	4
372	51
374	34
375	5
376	13
377	0
