Mass Spectrum: Isoquinoline, 5-nitro-
Formula: C9H6N2O2
CAS: 607-32-9
Molecular weight: 174
m/z	intensity
12	5
13	2
14	9
15	2
16	9
24	2
25	9
26	53
27	42
28	63
29	11
30	285
31	3
32	1
35	1
36	14
37	125
38	155
39	162
40	25
41	11
42	4
43	9
44	7
45	3
46	60
47	1
48	11
49	83
50	399
51	549
52	80
53	14
54	4
55	2
56	3
57	2
58	2
60	24
61	160
62	289
63	407
64	71
65	30
66	7
67	5
68	3
69	2
70	2
71	1
72	9
73	81
74	659
75	989
76	191
77	263
78	44
79	7
80	3
81	56
82	4
83	2
84	9
85	32
86	61
87	75
88	78
89	611
90	102
91	360
92	44
93	4
94	3
95	2
96	4
97	28
98	145
99	100
100	141
101	696
102	142
103	117
104	21
105	2
106	2
107	1
108	1
109	1
110	3
111	6
112	6
113	3
114	23
115	32
116	999
117	145
118	68
119	75
120	9
121	1
122	2
123	8
124	5
125	2
126	10
127	76
128	384
129	65
130	27
131	4
132	1
133	1
140	1
141	2
142	5
143	4
144	84
145	28
146	14
147	76
148	9
149	1
157	1
158	11
159	2
173	14
174	365
175	43
176	3
