Mass Spectrum: (3Z)-1H-Indole-2,3-dione 3-oxime
Formula: C8H6N2O2
CAS: 607-28-3
Molecular weight: 162
m/z	intensity
63	133
64	142
65	55
89	37
90	125
91	400
92	15
102	20
104	36
105	20
116	66
117	138
118	999
119	47
131	60
132	114
144	195
145	119
146	26
162	304
163	95
