Mass Spectrum: 4-Hexen-3-ol, 2,5-dimethyl-
Formula: C8H16O
CAS: 60703-31-3
Molecular weight: 128
m/z	intensity
26	4
27	66
28	7
29	90
30	2
31	17
37	2
38	6
39	80
40	12
41	206
42	18
43	191
44	10
45	13
50	4
51	11
52	5
53	28
54	6
55	108
56	14
57	47
58	7
59	43
60	3
63	3
65	18
66	3
67	78
68	10
69	27
70	13
71	35
72	13
73	14
74	3
77	9
78	2
79	8
80	3
81	9
82	3
83	56
84	24
85	999
86	58
87	7
88	1
91	4
93	4
95	40
96	4
97	5
98	2
99	2
109	5
110	9
111	11
112	1
113	41
114	3
126	3
127	2
128	20
129	3
