Mass Spectrum: 1H-Inden-1-one, 3a,4,5,6,7,7a-hexahydro-4,4,7a-trimethyl-
Formula: C12H18O
CAS: 60713-97-5
Molecular weight: 178
m/z	intensity
26	3
27	70
28	14
29	53
38	5
39	111
40	24
41	171
42	12
43	45
44	5
45	2
50	6
51	27
52	14
53	59
54	9
55	126
56	10
57	5
58	3
59	7
60	2
62	2
63	11
64	5
65	42
66	28
67	69
68	14
69	47
70	7
71	3
77	85
78	21
79	115
80	54
81	66
82	35
83	38
84	7
89	2
90	2
91	75
92	14
93	67
94	65
95	96
96	999
97	114
98	22
99	1
103	6
104	2
105	32
106	21
107	67
108	73
109	151
110	26
111	3
112	4
115	6
116	2
117	10
118	2
119	13
120	25
121	43
122	27
123	23
124	10
128	2
129	2
130	3
131	3
133	4
134	3
135	91
136	17
137	4
140	4
145	17
146	3
147	2
148	3
149	5
150	30
151	4
160	2
161	1
163	83
164	10
165	1
178	82
179	11
180	1
