Mass Spectrum: Cyclohexanecarboselenoic acid, Se-phenyl ester
Formula: C13H16OSe
CAS: 60718-41-4
Molecular weight: 268
m/z	intensity
27	24
28	4
29	23
39	54
40	5
41	123
42	8
43	11
50	14
51	31
52	4
53	19
54	14
55	321
56	15
63	4
65	17
66	3
67	22
68	2
69	2
74	4
75	6
76	11
77	88
78	48
79	13
81	21
82	4
83	999
84	76
85	4
91	4
93	4
105	4
107	3
110	3
111	762
112	47
113	3
115	6
117	14
119	2
129	3
130	3
131	4
151	2
152	3
153	30
154	46
155	89
156	90
157	147
158	148
159	32
160	26
264	14
265	14
266	36
267	7
268	87
269	16
270	14
271	2
