Mass Spectrum: 6,8-Nonadien-2-one, 6-methyl-5-(1-methylethylidene)-
Formula: C13H20O
CAS: 60714-16-1
Molecular weight: 192
m/z	intensity
27	34
28	26
29	29
39	71
40	14
41	131
42	11
43	258
44	36
45	7
51	27
52	12
53	52
55	49
57	17
59	8
63	12
65	50
66	13
67	33
69	26
71	18
72	31
77	103
78	28
79	92
80	15
81	25
91	215
92	39
93	98
94	13
95	13
103	25
104	13
105	178
106	53
107	85
108	10
109	13
115	19
117	34
118	11
119	999
120	118
121	352
122	36
131	13
133	34
134	242
135	60
136	6
159	40
174	12
177	27
192	35
193	5
