Mass Spectrum: Hydrazinecarbothioamide, 2-[(2-nitrophenyl)methylene]-
Formula: C8H8N4O2S
CAS: 6072-63-5
Molecular weight: 224
m/z	intensity
26	6
27	34
29	18
30	40
31	11
33	9
34	6
37	11
38	27
39	114
40	12
41	36
42	24
43	999
44	24
45	17
46	6
47	11
48	26
49	6
50	130
51	180
52	90
53	28
54	6
55	20
56	9
57	30
58	9
59	57
60	517
61	34
62	56
63	137
64	125
65	229
66	29
67	9
68	4
69	15
70	9
71	17
72	8
73	12
74	55
75	104
76	620
77	209
78	115
79	105
80	41
81	11
82	4
83	12
84	5
85	9
86	8
87	11
88	9
89	69
90	97
91	172
92	152
93	20
94	3
95	4
96	3
97	9
98	3
99	3
100	3
101	3
102	172
103	83
104	59
105	144
106	18
107	6
108	21
109	11
110	2
111	5
112	3
113	4
115	2
116	6
117	14
118	57
119	62
120	33
121	15
122	5
123	5
125	2
129	5
131	2
132	15
133	14
134	21
135	94
136	18
137	7
141	3
145	2
146	9
147	3
148	32
149	288
150	29
151	12
152	3
160	2
161	3
162	8
163	2
164	2
167	4
176	2
177	106
178	26
179	7
190	5
191	29
192	7
193	5
194	7
207	433
208	46
209	22
210	2
223	4
224	495
225	54
226	25
227	2
