Mass Spectrum: 3-Butenamide, N,4-diphenyl-
Formula: C16H15NO
CAS: 60773-91-3
Molecular weight: 237
m/z	intensity
26	0
27	26
29	0
37	2
38	26
39	195
40	20
41	18
42	1
50	37
51	126
52	32
53	4
54	0
58	9
61	0
62	19
63	77
64	44
65	193
66	39
67	0
74	9
75	13
76	16
77	264
78	43
79	0
86	0
87	4
88	2
89	49
90	11
91	260
92	205
93	188
94	15
102	22
103	11
104	3
106	0
113	0
114	3
115	481
116	220
117	714
118	999
119	153
120	275
121	25
127	0
130	0
132	0
133	6
134	5
135	0
144	190
145	45
146	64
147	3
159	0
160	0
182	0
193	1
194	4
195	13
208	0
236	5
237	787
238	149
239	16
