Mass Spectrum: Hex-1-yne, 6-benzyloxy-
Formula: C13H16O
CAS: 60789-55-1
Molecular weight: 188
m/z	intensity
37	0
38	3
39	32
40	4
41	34
42	2
43	3
50	6
51	19
52	8
53	20
54	17
55	19
56	3
57	2
62	3
63	13
65	92
66	11
67	78
68	7
69	17
70	2
71	2
74	1
75	1
77	55
78	21
79	102
80	10
81	23
82	9
83	13
84	6
85	2
86	0
87	0
89	30
91	999
92	155
93	11
94	0
95	3
96	4
97	23
98	2
99	1
101	1
102	2
104	60
105	174
106	18
107	82
108	10
109	2
110	4
111	12
112	1
115	25
116	13
117	62
118	23
119	7
120	64
121	6
122	0
124	1
125	6
126	2
127	6
128	28
129	124
130	53
131	52
132	55
133	39
134	43
135	5
141	22
142	27
143	39
144	23
145	57
146	23
147	43
148	6
153	2
154	3
155	16
156	3
157	6
159	40
160	14
161	7
162	1
169	13
170	4
171	7
173	55
174	8
187	315
188	65
189	7
