Mass Spectrum: Cholestane, 4,5-epoxy-, (4.alpha.,5.alpha.)-
Formula: C27H46O
CAS: 6079-19-2
Molecular weight: 386
m/z	intensity
40	50
41	650
42	110
43	999
44	70
45	260
46	20
47	20
48	10
50	10
51	20
52	10
53	120
54	40
55	760
56	120
57	430
58	40
59	20
60	50
61	10
65	40
66	30
67	410
68	150
69	400
70	60
71	230
72	20
77	140
78	40
79	380
80	90
81	570
82	100
83	170
84	30
85	40
91	270
92	60
93	330
94	100
95	430
96	70
97	120
98	40
99	30
103	10
104	10
105	220
106	70
107	260
108	100
109	190
110	50
111	190
112	40
113	10
115	10
116	10
117	40
118	20
119	100
120	40
121	130
122	40
123	80
124	170
125	60
126	40
129	20
130	10
131	60
132	20
133	90
134	40
135	80
136	40
137	120
138	30
139	20
143	20
144	10
145	50
146	20
147	100
148	30
149	50
151	20
152	10
157	10
159	40
160	10
161	40
162	10
163	20
164	10
165	10
171	10
173	20
174	10
175	30
176	10
177	10
178	10
185	10
187	10
189	10
191	10
199	10
201	10
202	10
203	20
204	10
205	10
213	20
214	10
215	10
217	20
218	10
219	10
229	10
231	70
232	30
233	10
245	10
246	30
247	30
255	10
259	10
260	10
273	33
315	10
357	10
358	10
368	10
371	20
386	210
387	60
388	10
