Mass Spectrum: 2-Hydroxy-3-methylsuccinic acid
Formula: C5H8O5
CAS: 608-41-3
Molecular weight: 148
m/z	intensity
25	6
26	55
27	231
28	177
29	762
30	80
31	139
35	4
38	12
39	106
40	31
41	128
42	39
43	324
44	33
45	173
46	25
47	66
50	3
51	3
52	2
53	12
54	3
55	86
56	122
57	382
58	151
59	14
60	31
61	44
62	2
63	4
64	2
65	8
66	2
67	4
68	51
69	32
70	30
71	59
72	5
73	169
74	308
75	15
76	24
77	7
79	3
80	2
81	4
82	4
83	9
84	9
85	999
86	188
87	21
88	18
89	39
90	2
91	6
92	4
93	2
95	2
96	2
97	5
98	3
99	2
101	4
102	25
103	607
104	32
105	7
107	2
112	2
113	2
115	4
119	2
120	8
121	7
122	2
129	6
130	3
131	6
133	3
149	10
