Mass Spectrum: N-Acetyl-d-galactosamine
Formula: C8H15NO6
CAS: 6082-29-7
Molecular weight: 221
m/z	intensity
41	46
42	212
43	999
44	162
45	93
46	10
47	29
52	8
53	15
54	30
55	90
56	155
57	44
58	44
59	94
60	229
61	122
62	2
68	10
69	19
70	20
71	59
72	301
73	340
74	58
75	2
82	12
83	56
84	35
85	21
86	14
88	17
91	8
96	17
97	10
98	8
99	11
100	94
101	72
102	65
103	27
112	14
113	11
114	59
115	10
124	2
125	31
126	21
130	15
142	57
143	62
144	6
154	9
155	2
160	13
166	2
174	2
185	6
186	2
204	7
