Mass Spectrum: 2,2,5,5-Tetramethyl-4-ethyl-3-imidazoline-3-oxide
Formula: C9H18N2O
CAS: 60829-49-4
Molecular weight: 170
m/z	intensity
30	9
31	3
32	6
38	3
39	43
40	10
41	182
42	239
43	39
44	7
45	1
50	5
51	5
52	5
53	20
54	16
55	330
56	70
57	21
58	999
59	68
60	2
61	2
65	5
66	3
67	23
68	13
69	6
70	18
71	11
72	2
73	2
77	2
79	3
80	4
81	6
82	11
83	351
84	46
85	3
87	3
94	4
95	3
96	10
97	4
98	21
99	18
108	3
109	5
110	4
112	4
113	25
114	4
115	6
122	2
123	7
124	4
125	3
137	3
138	1
139	9
140	22
141	6
155	8
170	214
171	19
172	1
