Mass Spectrum: 5-Dodecanol acetate
Formula: C14H28O2
CAS: 60826-24-6
Molecular weight: 228
m/z	intensity
41	185
42	64
43	999
44	40
45	9
49	1
51	1
52	0
53	13
54	23
55	155
56	107
57	125
58	79
59	42
60	1
61	30
62	0
65	3
66	2
67	30
68	21
69	161
70	98
71	51
72	6
73	3
77	3
79	5
80	1
81	14
82	36
83	93
84	84
85	45
86	15
87	6
91	1
93	1
95	6
96	22
97	92
98	47
99	11
100	9
101	22
102	42
103	15
104	1
109	5
110	27
111	422
112	57
113	8
114	1
115	1
116	0
123	1
124	11
125	48
126	21
127	15
128	29
129	498
130	34
131	3
137	0
138	3
139	13
140	33
141	4
142	12
143	16
144	15
145	1
149	1
151	0
153	1
154	1
155	0
157	1
166	1
167	1
168	355
169	66
170	6
171	50
172	7
173	0
182	1
185	6
186	1
197	0
210	1
211	3
212	0
213	2
214	0
226	1
227	0
228	4
229	1
