Mass Spectrum: 4-(1-Hydroxyiminoethyl)-2,2,5,5-tetramethyl-3-imidazoline-3-oxide-1-oxyl
Formula: C9H17N3O3
CAS: 60829-52-9
Molecular weight: 215
m/z	intensity
35	4
36	23
37	14
38	27
39	365
40	137
41	713
42	999
43	548
44	77
45	11
46	5
47	18
48	9
49	6
50	15
51	40
52	46
53	231
54	132
55	103
56	614
57	68
58	537
59	244
60	11
83	81
84	80
85	99
86	35
87	4
88	75
89	4
91	9
92	20
93	22
94	235
95	237
96	79
97	56
98	84
99	18
100	6
101	4
105	11
106	8
107	20
108	81
109	323
110	77
111	169
112	264
113	19
114	3
118	4
119	5
120	8
121	17
122	55
123	18
124	55
125	207
126	185
127	35
128	13
129	2
132	5
133	8
134	18
135	130
136	42
137	44
138	9
139	5
140	5
141	101
142	264
143	24
144	2
148	7
149	41
150	127
151	116
152	53
153	40
154	7
155	4
156	7
157	2
164	77
165	48
166	24
167	702
168	123
169	46
170	5
179	4
180	3
181	2
182	42
183	16
184	185
185	20
186	2
197	3
198	11
199	55
215	163
216	18
217	2
