Mass Spectrum: 5-Acetoxytridecane
Formula: C15H30O2
CAS: 60826-29-1
Molecular weight: 242
m/z	intensity
39	48
40	18
41	163
42	48
43	999
44	62
45	11
53	10
54	25
55	140
56	72
57	90
58	58
59	15
61	23
67	25
68	10
69	100
70	50
71	50
72	6
81	10
82	22
83	75
84	38
85	27
96	10
97	100
98	28
99	5
101	6
102	6
110	6
111	55
112	10
113	6
125	22
126	6
129	88
182	45
183	6
