Mass Spectrum: 1,3-Oxathiolan-5-one, 2-(1,1-dimethylethyl)-4-methyl-, cis-
Formula: C8H14O2S
CAS: 60822-67-5
Molecular weight: 174
m/z	intensity
25	57
27	329
28	93
29	358
30	10
31	9
33	7
34	11
35	54
36	5
37	9
38	17
39	214
40	30
41	578
42	63
43	126
44	39
45	164
46	16
47	30
48	3
49	4
50	12
51	18
52	6
53	57
54	12
55	118
56	173
57	999
58	80
59	200
60	370
61	372
62	31
63	22
64	3
65	8
66	3
67	17
68	8
69	68
70	54
71	84
72	10
73	11
74	46
75	8
76	8
77	7
78	3
79	6
80	2
81	8
82	4
83	11
84	5
85	50
86	15
87	126
88	146
89	635
90	51
91	48
92	4
93	5
94	2
95	5
96	3
97	6
98	4
99	4
100	2
101	8
102	36
103	22
105	6
107	3
108	3
109	3
110	3
111	4
112	2
113	6
114	2
116	45
117	494
118	88
119	90
120	9
121	6
122	2
123	2
124	2
125	2
126	2
127	3
128	3
129	5
130	4
131	49
132	8
133	4
135	3
136	2
137	3
138	2
139	3
140	2
141	7
142	4
143	3
155	4
156	2
157	7
158	3
159	5
160	8
161	3
171	2
172	16
173	4
174	194
175	27
176	13
