Mass Spectrum: 3,4,5-Trimethyl-4-heptanol
Formula: C10H22O
CAS: 60836-08-0
Molecular weight: 158
m/z	intensity
15	16
27	152
28	94
29	278
31	24
39	127
41	354
42	39
43	299
45	665
46	17
51	14
53	50
55	333
56	43
57	394
59	368
65	16
67	52
69	271
70	41
71	56
72	43
73	19
79	17
81	19
83	224
84	51
85	74
101	999
102	66
111	88
112	29
140	31
143	22
