Mass Spectrum: 2-(2-Acetoxy-1-propyl)furan, (S)
Formula: C9H12O3
CAS: 60830-70-8
Molecular weight: 168
m/z	intensity
43	999
53	140
77	30
79	110
81	200
82	40
108	360
109	50
125	10
