Mass Spectrum: 3-Octene-2,5-dione, 6,6,7-trimethyl-, (E)-
Formula: C11H18O2
CAS: 60845-48-9
Molecular weight: 182
m/z	intensity
26	14
27	70
28	9
29	42
31	2
38	3
39	68
40	13
41	229
42	47
43	999
44	38
45	3
50	2
51	7
52	3
53	22
54	16
55	69
56	6
57	143
58	6
65	4
67	9
68	2
69	33
70	34
71	5
77	5
79	6
81	4
82	6
83	3
84	5
85	260
86	19
87	0
91	2
95	4
96	2
97	64
98	379
99	24
100	2
105	1
107	2
109	1
111	2
112	1
113	1
123	3
124	1
125	59
126	5
127	0
139	2
140	1
141	0
149	3
155	0
165	0
167	0
182	0
183	2
184	0
