Mass Spectrum: 5-(2,3-Dimethyltricyclo[2.2.1.02,6]heptan-3-yl)pentan-2-one
Formula: C14H22O
CAS: 60843-83-6
Molecular weight: 206
m/z	intensity
15	3
27	69
28	53
29	40
36	3
38	6
39	166
40	40
41	286
42	28
43	876
45	15
50	13
51	59
52	21
53	130
54	29
55	182
57	11
58	135
59	29
62	6
63	24
64	8
65	147
66	69
67	162
68	24
70	33
71	349
72	53
77	355
78	100
79	408
80	133
81	134
82	94
83	12
84	8
85	80
86	7
89	12
90	7
91	536
92	187
93	999
94	171
95	112
96	26
97	20
99	5
101	6
103	61
104	33
105	510
106	98
107	306
108	26
109	40
110	10
111	10
112	5
113	105
114	14
115	45
116	11
117	63
118	26
119	222
120	122
121	748
122	138
123	42
124	5
125	6
127	9
128	13
129	17
131	59
132	216
133	287
137	19
138	4
140	13
141	6
143	13
145	154
146	43
147	66
148	231
149	37
154	4
157	8
158	9
159	53
160	14
162	4
163	86
164	4
165	59
171	6
173	48
174	23
175	4
177	17
178	33
188	32
189	7
191	20
192	3
205	25
206	175
207	30
