Mass Spectrum: Spirostan-3-amine, (3.beta.,5.alpha.,25S)-
Formula: C27H45NO2
CAS: 6084-44-2
Molecular weight: 415
m/z	intensity
41	587
42	507
43	999
44	127
45	47
53	127
54	69
55	834
56	834
57	730
58	111
59	25
60	6
65	38
66	25
67	412
68	158
69	841
70	384
71	374
72	57
73	142
74	12
76	247
77	127
78	25
79	349
80	95
81	476
82	666
83	539
84	127
85	190
86	31
87	3
91	333
92	69
93	571
94	158
95	634
96	190
97	492
98	79
99	95
103	9
104	12
105	412
106	111
107	492
108	222
109	412
110	130
111	152
112	60
113	57
114	57
115	387
116	31
117	92
118	31
119	269
120	127
121	387
122	127
123	206
124	142
125	222
126	228
127	66
128	28
129	41
130	25
131	133
132	47
133	253
134	79
135	165
136	66
137	69
138	57
139	952
140	412
141	57
142	15
143	57
144	15
145	158
146	57
147	206
148	60
149	111
150	31
151	44
152	31
153	31
154	15
155	22
157	34
158	12
159	127
160	47
161	152
162	47
163	63
164	47
165	63
166	25
167	31
168	66
169	31
170	63
171	38
172	9
173	76
174	31
175	69
176	63
177	60
178	38
179	47
180	66
181	31
182	12
183	25
185	28
186	6
187	44
188	25
189	31
190	31
191	31
192	9
193	9
197	15
199	31
200	12
201	69
202	25
203	12
204	9
213	31
214	31
215	142
216	79
217	63
218	34
219	31
220	12
227	19
228	12
229	57
230	31
231	34
232	44
233	63
234	44
239	6
241	12
243	6
244	127
245	158
246	63
247	15
253	25
255	222
256	63
257	6
268	12
269	127
270	47
271	25
272	644
273	79
274	9
284	269
285	66
286	174
287	47
288	31
289	6
290	6
300	38
301	952
302	349
303	47
317	9
326	12
328	25
329	34
330	9
343	177
344	57
345	66
346	190
347	31
359	15
360	31
384	15
414	31
415	396
416	127
417	25
