Mass Spectrum: 4-Isopropyl-5,5-dimethyl-5H-furan-2-one
Formula: C9H14O2
CAS: 60845-38-7
Molecular weight: 154
m/z	intensity
25	0
26	9
27	119
28	10
29	33
30	0
31	4
36	0
37	4
38	17
39	168
40	46
41	208
42	28
43	999
44	31
45	6
46	0
47	0
48	0
49	2
50	31
51	76
52	47
53	203
54	21
55	103
56	10
57	12
58	3
59	17
60	1
61	2
62	7
63	14
64	3
65	37
66	22
67	226
68	68
69	74
70	5
71	4
72	0
73	1
74	2
75	1
76	1
77	27
78	6
79	20
80	7
81	178
82	12
83	93
84	11
85	3
86	0
87	1
89	2
90	1
91	13
92	2
93	37
94	5
95	75
96	112
97	53
98	4
99	1
100	0
101	0
102	0
103	0
104	0
105	4
106	1
107	3
108	1
109	7
110	14
111	933
112	468
113	37
114	3
115	0
116	0
117	0
118	0
119	1
120	0
121	3
122	0
123	4
124	4
125	3
126	1
127	1
128	0
129	0
130	0
131	0
132	0
133	0
134	0
135	1
136	0
137	2
138	3
139	574
140	54
141	5
142	0
147	0
148	0
150	0
151	1
152	0
153	2
154	14
155	1
