Mass Spectrum: Butyric acid, 2,3-dioxo-, 2-methyloxime, ethyl ester
Formula: C7H11NO4
CAS: 60846-14-2
Molecular weight: 173
m/z	intensity
29	41
30	41
31	141
32	6
33	19
43	10
44	31
45	999
46	37
47	41
56	41
60	52
61	10
72	31
76	10
102	31
130	12
173	6
174	2
