Mass Spectrum: 9,11-Octadecadiynoic acid, 8-hydroxy-, methyl ester
Formula: C19H30O3
CAS: 6084-80-6
Molecular weight: 306
m/z	intensity
87	999
91	590
92	210
93	370
94	200
95	390
101	440
105	410
107	430
108	220
117	340
119	210
121	330
129	220
131	240
135	250
144	390
163	230
171	330
221	80
236	70
247	2
275	3
291	2
306	3
