Mass Spectrum: Cyclopentane, 1,1'-ethan-1,2-diyl bis(1-hydroxy)-
Formula: C12H22O2
CAS: 60858-65-3
Molecular weight: 198
m/z	intensity
33	2
34	2
36	1
37	3
39	414
41	999
43	526
45	46
47	18
48	12
50	10
51	35
53	267
55	640
57	557
58	43
59	9
60	2
61	2
62	6
63	7
65	59
67	684
69	120
70	77
71	76
72	81
73	9
74	1
75	2
77	57
79	241
80	303
81	369
83	145
85	628
87	2
89	1
91	72
92	13
93	46
94	133
95	265
96	240
97	29
98	18
99	8
100	1
101	1
103	10
105	29
106	5
107	13
108	4
109	42
110	7
111	12
112	3
113	19
114	92
115	7
117	2
119	24
120	16
121	12
123	61
124	5
125	1
127	4
128	0
137	40
138	178
139	17
140	1
141	1
142	0
151	355
152	39
153	2
154	0
156	7
157	0
162	7
163	4
164	0
180	19
181	2
182	0
198	0
