Mass Spectrum: 1-Butyl-1H-1,2,4-triazole
Formula: C6H11N3
CAS: 6086-22-2
Molecular weight: 125
m/z	intensity
15	76
18	208
27	267
28	444
29	372
30	67
39	708
40	94
41	449
42	154
43	140
55	590
56	635
57	44
69	231
70	813
71	35
82	663
83	999
84	94
96	104
97	254
98	13
110	26
124	254
125	510
126	31
