Mass Spectrum: (7S)-(-)-10,10-di-Me-5-thia-4-azatricyclo[5.2.1.0-3,7]dec-3-ene-5,5-dioxide
Formula: C10H15NO2S
CAS: 60886-80-8
Molecular weight: 213
m/z	intensity
15	1
26	1
27	38
28	16
29	21
30	4
32	2
34	1
38	3
39	63
40	16
41	116
42	50
43	54
44	4
45	1
48	14
50	4
51	16
52	10
53	52
54	24
55	74
56	11
57	7
58	1
59	3
60	1
62	1
63	4
64	70
65	24
66	17
67	207
68	35
69	39
70	9
71	1
76	2
77	50
78	11
79	96
80	31
81	61
82	186
83	25
84	1
89	2
90	1
91	68
92	15
93	421
94	81
95	26
96	3
97	1
103	3
104	3
105	17
106	65
107	99
108	999
109	346
110	26
111	1
115	2
116	2
117	17
118	5
119	7
120	35
121	30
122	7
123	14
124	1
130	3
131	4
132	14
133	9
134	331
135	35
136	2
145	2
146	2
147	3
148	53
149	132
150	19
151	41
152	4
153	3
168	6
170	1
171	1
198	1
213	20
214	9
215	2
