Mass Spectrum: 2-Acethydrazido-5-methyl nitrobenzene
Formula: C9H11N3O3
CAS: 60882-63-5
Molecular weight: 209
m/z	intensity
41	83
43	999
44	22
45	4
47	3
49	15
50	39
51	123
52	74
53	50
54	67
55	6
57	2
60	3
61	10
62	24
63	90
65	346
66	317
67	44
68	2
69	3
71	0
73	1
74	5
75	7
76	10
77	151
78	76
79	25
80	5
81	2
84	8
86	9
87	4
89	106
91	360
92	71
93	87
94	14
95	0
102	5
104	145
105	85
106	29
107	12
108	2
115	1
117	0
118	4
119	12
121	50
122	13
123	2
132	5
133	20
134	4
135	0
136	4
139	2
146	53
147	4
148	3
149	45
150	23
151	12
152	2
161	1
162	4
163	1
164	0
166	38
167	33
168	4
169	0
207	3
209	222
210	44
211	4
212	0
