Mass Spectrum: 2H-Pyran, tetrahydro-2-(2-propynyloxy)-
Formula: C8H12O2
CAS: 6089-04-9
Molecular weight: 140
m/z	intensity
25	8
26	48
27	195
28	149
29	266
30	14
31	89
36	2
37	21
38	51
39	490
40	60
41	496
42	84
43	161
44	44
45	14
47	4
49	1
50	7
51	11
52	13
53	152
54	114
55	339
56	563
57	304
58	18
59	6
60	1
61	1
63	1
64	2
65	19
66	39
67	118
68	50
69	85
70	28
71	19
72	2
73	4
74	4
75	1
77	11
78	3
79	60
80	9
81	87
82	148
83	104
84	66
85	999
86	70
87	5
91	4
93	11
94	5
95	19
96	9
97	19
98	12
99	12
100	11
101	70
102	6
107	2
109	2
110	12
111	11
112	14
113	3
114	2
121	1
123	1
124	1
125	2
139	97
140	10
141	2
