Mass Spectrum: dl-Proline
Formula: C5H9NO2
CAS: 609-36-9
Molecular weight: 115
m/z	intensity
14	4
15	20
16	2
17	2
18	8
26	8
27	38
28	195
29	8
30	29
31	3
32	7
33	2
34	1
37	4
38	9
39	52
40	14
41	176
42	56
43	180
44	13
45	17
46	1
50	1
51	2
52	3
53	8
54	5
55	6
56	3
57	4
60	1
66	1
67	7
68	87
69	44
70	999
71	49
72	1
73	4
74	6
79	2
81	1
82	1
83	2
84	3
85	1
86	1
87	9
95	1
96	3
97	3
98	1
114	1
115	9
