Mass Spectrum: 1,3-Dioxolane, 2-methyl-2-(4-methyl-3-cyclohexen-1-yl)-
Formula: C11H18O2
CAS: 6090-08-0
Molecular weight: 182
m/z	intensity
26	1
27	29
28	2
29	20
30	0
31	3
38	0
39	32
40	24
41	39
42	6
43	548
44	10
45	29
46	1
50	2
51	9
52	5
53	25
54	4
55	30
56	1
58	0
59	5
61	1
62	0
63	2
64	0
65	12
66	3
67	34
68	8
69	3
71	5
72	0
73	4
76	2
77	24
78	5
79	27
80	13
81	7
82	2
83	2
84	1
85	1
86	5
87	999
88	60
89	10
90	0
91	18
92	5
93	25
94	12
95	45
96	3
97	2
99	70
100	4
101	0
103	1
104	0
105	40
106	3
107	4
108	0
109	4
110	1
111	0
113	3
115	0
117	0
119	2
120	96
121	18
122	4
123	27
124	3
134	0
136	0
137	11
138	21
139	2
149	0
151	0
152	1
163	1
165	0
167	46
168	6
182	65
183	6
184	0
