Mass Spectrum: 5-Fluoro-2-methylsulfonylpyrimidine
Formula: C5H5FN2O2S
CAS: 6090-38-6
Molecular weight: 176
m/z	intensity
25	7
26	20
27	33
28	8
29	21
30	7
31	132
32	9
34	8
36	2
37	5
38	16
39	20
40	22
41	17
42	36
43	19
44	100
45	54
46	70
47	22
48	50
49	7
50	13
51	54
52	64
53	89
54	4
55	2
56	19
57	28
58	69
59	13
60	6
61	4
62	5
63	171
64	26
65	18
66	11
67	2
68	2
69	22
70	341
71	78
72	6
73	9
74	122
75	17
76	10
77	228
78	19
79	156
80	5
81	10
82	2
83	4
84	10
85	49
86	133
87	11
90	2
91	21
93	3
96	4
97	999
98	152
99	13
100	6
101	29
102	20
103	15
104	17
105	7
106	3
110	1
111	6
112	127
113	15
114	357
115	35
116	8
117	3
118	2
119	1
120	1
121	3
127	5
128	29
129	123
130	9
131	42
132	7
133	17
134	15
135	2
141	1
143	2
144	2
145	6
146	4
147	4
148	1
149	2
150	2
157	8
161	238
162	18
163	15
173	4
174	12
175	5
176	130
177	13
178	9
