Mass Spectrum: 1,3-Dioxane, 2-(bromomethyl)-2-(chloromethyl)-5,5-dimethyl-
Formula: C8H14BrClO2
CAS: 60935-31-1
Molecular weight: 256
m/z	intensity
26	6
27	87
28	13
29	92
30	1
31	11
36	1
37	1
38	3
39	82
40	21
41	430
42	23
43	28
44	1
45	106
46	2
47	0
48	0
49	31
50	1
51	10
52	1
53	16
54	5
55	49
56	322
57	35
58	6
59	1
60	0
61	1
62	1
63	4
64	0
65	2
66	0
67	12
68	7
69	999
70	48
71	14
72	2
73	1
74	0
75	4
76	2
77	120
78	3
79	38
80	1
81	0
82	1
83	0
84	0
85	4
86	1
87	60
88	3
89	0
91	6
92	1
93	15
94	1
95	15
96	0
97	0
99	0
101	0
103	0
105	1
106	0
107	4
109	2
110	0
111	0
117	0
119	0
120	2
121	79
122	3
123	79
124	2
125	0
127	0
128	1
129	0
131	1
132	0
133	0
135	4
136	0
137	4
138	0
139	1
141	1
143	1
145	0
149	0
151	1
153	1
155	0
163	291
164	22
165	90
166	7
167	1
170	0
171	2
172	0
173	3
175	0
179	0
186	0
207	141
208	10
209	132
210	11
211	1
