Mass Spectrum: 4,8-Dioxaspiro[2.5]oct-1-ene
Formula: C6H8O2
CAS: 60935-21-9
Molecular weight: 112
m/z	intensity
25	5
26	454
27	240
28	146
29	210
30	27
31	37
36	2
37	20
38	37
39	100
40	43
41	169
42	180
43	30
44	6
45	7
46	1
49	0
50	3
51	2
53	143
54	999
55	396
56	50
57	41
58	8
59	10
63	0
65	2
66	4
67	7
68	3
69	9
70	3
71	19
72	1
73	3
74	0
75	0
77	0
78	0
79	1
81	22
82	62
83	11
84	31
85	5
86	103
87	10
88	0
95	0
96	0
97	6
98	0
100	0
111	24
112	109
113	11
114	6
115	0
