Mass Spectrum: 3-(1,3,6-Trimethyl-3-piperiden-4-yl)-2-(2-methyl-2-aminopropyl)indole
Formula: C20H29N3
CAS: 60948-14-3
Molecular weight: 311
m/z	intensity
58	999
77	21
115	13
128	10
130	22
167	22
180	32
181	26
182	31
196	23
197	207
198	28
211	27
239	102
240	21
254	345
255	65
311	51
