Mass Spectrum: Benzoic acid, 2-[(2-furanylcarbonyl)amino], methyl ester
Formula: C13H11NO4
CAS: 60943-80-8
Molecular weight: 245
m/z	intensity
37	23
38	81
39	346
40	153
41	31
51	17
52	18
53	14
55	10
59	9
63	66
64	48
65	35
66	23
67	80
76	19
77	23
83	10
90	121
91	34
92	95
93	9
95	999
96	43
119	47
120	58
129	25
130	10
146	114
147	9
157	60
158	15
185	100
186	281
187	31
212	13
213	19
214	15
245	494
246	63
