Mass Spectrum: (S)-(+)-N-Benzoylglutamic acid
Formula: C12H13NO5
CAS: 6094-36-6
Molecular weight: 251
m/z	intensity
15	1
16	1
17	15
18	72
26	5
27	16
28	19
29	6
30	2
37	3
38	5
39	15
40	2
41	11
42	4
43	2
44	21
45	9
49	1
50	29
51	89
52	9
53	3
54	9
55	11
56	11
57	2
60	1
61	1
62	1
63	3
64	1
65	2
66	1
70	1
72	2
73	3
74	8
75	9
76	21
77	333
78	28
79	2
82	5
83	11
84	92
85	7
86	1
89	1
90	1
91	2
92	1
94	2
100	11
101	5
102	13
103	15
104	19
105	999
106	83
107	6
111	2
115	2
116	1
117	2
118	1
119	2
120	1
121	9
122	48
123	4
128	2
129	31
130	16
131	3
132	2
133	2
134	1
139	2
141	1
143	4
144	1
145	1
146	10
147	19
148	15
149	2
159	2
160	4
161	24
162	4
171	1
173	11
174	22
175	3
177	1
179	4
187	11
188	12
189	24
190	4
191	1
192	1
203	2
205	2
206	31
207	18
208	2
215	41
216	6
233	23
234	3
251	4
