Mass Spectrum: 3-(3-Methyl-3-piperiden-4-yl)-2-(2-methyl-2-aminopropyl)indole
Formula: C18H25N3
CAS: 60948-13-2
Molecular weight: 283
m/z	intensity
58	999
77	12
105	21
115	11
128	12
130	53
144	60
167	79
168	65
180	84
181	76
182	160
183	66
196	134
197	878
198	139
211	30
225	86
226	590
227	113
283	160
