Mass Spectrum: Glycine, N-(2-methoxy-2-oxoethyl)-, methyl ester
Formula: C6H11NO4
CAS: 6096-81-7
Molecular weight: 161
m/z	intensity
40	26
41	24
42	585
43	85
44	52
45	81
59	16
70	9
72	8
73	7
74	266
75	11
86	9
88	13
100	10
101	14
102	999
103	54
129	93
130	5
161	100
162	7
