Mass Spectrum: N-Isopropoxy-2-carbaminoaziridine
Formula: C6H12N2O2
CAS: 60999-62-4
Molecular weight: 144
m/z	intensity
15	235
16	27
18	378
19	11
27	322
28	126
29	87
30	257
31	32
41	525
42	235
43	999
44	334
45	49
46	11
55	284
56	17
59	215
60	17
72	552
73	27
85	143
86	54
87	9
102	60
103	8
127	22
128	5
144	54
145	7
