Mass Spectrum: N-Methoxy-2-carbomenthyloxyaziridine
Formula: C14H25NO3
CAS: 60999-67-9
Molecular weight: 255
m/z	intensity
41	304
42	62
43	190
44	38
55	535
56	48
57	304
58	62
59	9
67	114
68	86
69	465
70	48
71	62
72	9
81	342
82	114
83	999
84	76
85	11
94	39
95	400
96	105
97	210
98	19
109	38
110	19
117	19
118	171
119	22
123	133
124	19
138	745
139	238
140	19
209	5
224	4
240	2
255	1
