Mass Spectrum: N-Ethoxy-2-carbomenthyloxyaziridine
Formula: C15H27NO3
CAS: 60999-68-0
Molecular weight: 269
m/z	intensity
27	158
28	88
29	228
30	17
41	351
42	79
43	228
44	44
55	623
56	52
57	307
58	70
59	9
67	140
68	70
69	439
70	52
71	9
81	474
82	176
83	999
84	70
85	12
95	579
96	158
97	211
98	35
109	52
110	26
113	52
114	35
123	237
124	26
132	105
133	105
134	21
135	9
138	684
139	158
140	26
224	8
241	5
254	3
269	8
270	1
