Mass Spectrum: N-Methoxy-aziridine-2-carboxamide, N-(2-aminoethyl)
Formula: C6H13N3O2
CAS: 60999-64-6
Molecular weight: 159
m/z	intensity
15	159
16	23
18	159
19	20
27	130
28	232
29	87
30	999
31	29
41	173
42	246
43	203
44	203
45	116
46	18
55	377
56	43
57	9
84	145
85	29
86	9
99	87
100	43
101	29
102	7
117	29
118	5
130	58
131	7
159	29
160	2
