Mass Spectrum: N-Isopropoxy-2-carbomenthyloxyaziridine
Formula: C16H29NO3
CAS: 60999-69-1
Molecular weight: 283
m/z	intensity
27	101
28	72
29	54
30	11
41	233
42	46
43	527
44	38
55	419
56	31
57	295
58	38
67	62
68	31
69	349
70	31
81	186
82	46
83	999
84	72
85	19
95	189
96	46
97	194
98	15
138	263
139	263
140	31
144	72
145	62
146	11
181	4
196	14
209	6
224	8
241	3
268	2
283	5
284	1
