Mass Spectrum: N-Ethoxy-2-carbaminoaziridine
Formula: C5H10N2O2
CAS: 60999-61-3
Molecular weight: 130
m/z	intensity
15	352
16	45
17	23
18	91
19	23
27	387
28	261
29	999
30	432
31	67
32	11
40	91
41	409
42	409
43	125
44	467
45	21
46	9
55	273
56	38
57	11
58	45
59	273
60	27
61	7
72	102
73	29
74	8
85	512
86	34
87	8
113	113
114	19
115	7
130	23
131	1
