Mass Spectrum: (3-Aminopropyl)dipropylborane
Formula: C9H22BN
CAS: 60993-56-8
Molecular weight: 155
m/z	intensity
29	109
30	59
31	59
39	119
41	379
42	459
43	369
45	59
53	59
54	69
55	109
56	89
57	129
58	89
60	59
68	79
69	299
70	999
71	9
83	69
111	129
112	419
