Mass Spectrum: Benzene, 1-(chloromethyl)-2,4-dinitro-
Formula: C7H5ClN2O4
CAS: 610-57-1
Molecular weight: 216
m/z	intensity
17	4
18	23
26	22
27	47
28	52
29	60
30	677
31	2
35	10
36	35
37	43
38	90
39	341
40	23
41	9
42	16
43	13
44	32
46	48
49	28
50	164
51	295
52	148
53	37
54	45
55	16
60	9
61	84
62	311
63	923
64	316
65	107
66	58
67	32
68	32
69	14
72	7
73	156
74	113
75	268
76	197
77	455
78	210
79	185
80	34
81	2
84	10
85	45
86	113
87	134
88	70
89	999
90	270
91	759
92	136
93	27
94	13
95	36
96	15
97	88
98	25
99	41
100	14
102	9
103	22
104	34
105	121
106	64
107	506
108	45
109	2
110	1
111	34
112	52
113	19
114	30
115	1
116	9
117	23
118	66
119	102
120	41
121	8
122	15
123	370
124	107
125	175
126	37
127	19
128	11
134	268
135	83
136	11
137	140
138	30
139	45
140	20
141	21
142	13
148	10
149	7
150	79
151	5
152	3
153	54
154	1
155	18
162	1
163	14
164	47
165	308
166	37
181	226
182	27
199	10
