Mass Spectrum: 4-Chloro-3-nitrophenol
Formula: C6H4ClNO3
CAS: 610-78-6
Molecular weight: 173
m/z	intensity
17	4
18	21
20	9
25	7
26	27
27	26
28	25
29	37
30	217
31	13
32	3
35	10
36	33
37	79
38	97
39	124
40	10
41	7
42	15
43	3
44	7
46	32
47	12
48	5
49	54
50	68
51	158
52	35
53	137
54	12
55	24
60	22
61	124
62	243
63	832
64	112
65	20
66	32
67	12
68	23
69	18
71	27
72	68
73	612
74	99
75	222
76	19
77	8
78	14
79	34
80	27
84	13
85	10
86	10
87	84
88	7
89	54
90	16
91	26
92	29
93	2
96	1
97	18
98	37
99	999
100	77
101	341
102	24
107	66
108	15
109	8
110	3
114	3
115	690
116	37
117	245
118	12
126	42
127	464
128	43
129	154
130	9
138	28
143	67
145	24
157	50
159	16
173	961
174	59
175	325
176	20
