Mass Spectrum: 2,4-Dinitrobenzoic acid
Formula: C7H4N2O6
CAS: 610-30-0
Molecular weight: 212
m/z	intensity
12	2
16	6
17	2
18	7
25	2
26	8
27	9
28	22
29	9
30	999
31	5
32	1
36	4
37	42
38	73
39	44
40	5
41	4
42	5
43	3
44	79
45	51
46	30
48	3
49	16
50	162
51	48
52	58
53	305
54	16
55	13
56	1
57	1
60	5
61	33
62	76
63	252
64	308
65	26
66	21
67	6
68	7
69	14
70	3
71	3
72	2
73	43
74	279
75	365
76	103
77	30
78	9
79	33
80	42
81	4
82	2
83	1
86	3
87	6
88	8
89	3
90	39
91	156
92	235
93	26
94	4
95	3
96	2
98	1
99	5
101	3
102	2
103	16
104	5
105	5
106	4
107	12
108	108
109	8
110	3
118	42
119	50
120	333
121	29
122	156
123	11
124	2
134	3
135	3
136	10
137	2
138	10
139	1
148	63
149	13
150	2
151	11
152	5
154	3
164	18
165	2
166	6
167	2
168	506
169	38
170	6
180	2
182	19
183	2
184	2
194	4
195	17
196	22
197	2
212	259
213	21
214	5
