Mass Spectrum: Benzaldehyde, 2-nitro-, phenylhydrazone
Formula: C13H11N3O2
CAS: 610-64-0
Molecular weight: 241
m/z	intensity
65	390
66	40
77	999
78	80
92	240
93	20
105	350
106	40
241	140
242	20
