Mass Spectrum: Benzoic acid, 2,5-diamino-
Formula: C7H8N2O2
CAS: 610-74-2
Molecular weight: 152
m/z	intensity
33	2
39	41
40	76
41	54
42	46
43	22
44	34
45	56
46	3
47	1
49	5
50	27
51	84
52	312
53	252
54	93
55	25
56	7
57	14
58	2
60	40
61	14
62	24
63	45
64	23
65	24
66	15
67	95
69	8
70	6
71	8
72	15
73	8
74	2
75	6
76	31
77	26
78	105
79	433
80	151
81	16
82	4
83	5
84	4
85	2
86	0
87	3
88	3
89	7
90	75
91	19
92	3
93	3
94	2
95	6
96	3
97	2
98	2
99	0
101	1
102	0
103	2
105	238
106	999
107	326
108	14
109	1
110	1
111	2
112	4
113	1
114	0
115	0
117	0
118	0
119	2
120	0
121	0
123	1
124	1
125	0
126	0
127	0
128	0
129	1
131	1
133	55
134	309
135	29
136	2
137	0
143	0
145	0
147	0
148	0
149	2
152	523
153	44
154	3
155	0
157	0
