Mass Spectrum: Cyclohexene, 3-phenylaminomethylene-1-phenyliminomethyl-
Formula: C20H20N2
CAS: 61009-98-1
Molecular weight: 288
m/z	intensity
34	2
36	1
38	78
39	213
40	79
41	107
42	115
43	64
44	250
45	42
46	10
50	93
51	451
52	103
53	60
54	22
55	26
56	14
57	31
58	6
61	9
62	21
63	66
64	31
65	124
66	78
67	80
68	8
69	26
70	10
71	8
73	9
74	21
75	19
76	50
77	999
78	146
79	49
80	19
81	21
82	19
83	50
84	7
85	21
88	1
89	12
90	11
91	107
92	48
93	177
94	22
96	7
97	5
98	9
100	28
101	3
102	13
103	33
104	315
106	123
107	10
108	3
109	2
111	1
112	3
113	4
114	3
115	30
116	15
117	32
118	46
119	12
120	15
121	7
122	3
123	1
124	3
125	1
126	3
127	14
128	21
129	17
130	64
131	10
132	7
133	26
134	4
135	1
136	10
137	3
139	4
140	6
141	12
142	18
143	47
144	68
145	8
147	36
148	72
149	7
151	4
152	18
153	13
154	28
155	6
156	38
157	6
158	2
165	26
166	15
167	52
168	43
169	17
170	17
171	8
177	0
178	9
179	12
180	49
181	32
182	37
183	13
184	21
185	21
186	1
190	4
191	2
192	11
193	16
194	76
195	40
196	286
197	53
198	7
201	2
205	2
206	2
207	6
208	5
209	34
210	7
211	7
212	1
213	1
225	1
240	3
253	1
256	5
270	14
271	15
272	10
273	4
287	106
288	153
289	44
290	2
