Mass Spectrum: 1,3-Cyclopentadiene, 5-(1-methylpentylidene)-
Formula: C11H16
CAS: 61039-45-0
Molecular weight: 148
m/z	intensity
26	11
27	103
28	8
29	34
30	0
37	2
38	10
39	75
40	80
41	59
42	4
43	14
44	0
49	0
50	14
51	37
52	15
53	18
54	1
55	16
56	2
57	1
58	2
61	2
62	14
63	40
64	13
65	71
66	86
67	12
68	0
69	1
71	1
73	0
74	6
75	8
76	7
77	137
78	84
79	104
80	9
81	1
83	2
85	1
86	3
87	4
88	1
89	49
90	21
91	999
92	141
93	32
94	3
98	1
100	0
101	1
102	13
103	91
104	38
105	244
106	745
107	64
108	3
115	57
116	20
117	85
118	11
119	211
120	33
121	2
126	1
127	4
128	11
129	8
130	2
131	14
132	15
133	53
134	6
141	0
142	0
145	1
146	1
147	3
148	221
149	28
150	1
