Mass Spectrum: Urea, N,N''-(2-methylpropylidene)bis-
Formula: C6H14N4O2
CAS: 6104-30-9
Molecular weight: 174
m/z	intensity
12	1
13	2
14	3
15	18
16	65
17	265
18	122
25	1
26	21
27	121
28	685
29	104
30	102
31	11
32	3
37	8
38	15
39	99
40	22
41	161
42	118
43	363
44	816
45	65
46	7
49	1
50	4
51	9
52	17
53	20
54	68
55	82
56	999
57	58
58	2
59	3
60	472
61	12
62	1
63	1
64	1
65	1
66	2
67	4
68	19
69	18
70	214
71	419
72	59
73	5
77	1
80	1
81	2
82	14
83	6
84	2
85	3
86	1
87	4
88	60
89	2
91	1
93	1
95	2
96	3
97	16
98	17
99	9
100	1
103	1
109	1
110	1
111	2
112	2
113	1
114	173
115	15
116	1
123	1
124	1
125	47
126	4
127	2
130	5
131	61
132	3
140	2
141	1
142	1
