Mass Spectrum: 4(3H)-Pyrimidinone, 3-methyl-
Formula: C5H6N2O
CAS: 6104-45-6
Molecular weight: 110
m/z	intensity
33	2
34	5
35	0
36	3
37	7
38	19
39	21
40	139
41	95
42	999
44	22
45	0
47	1
50	3
51	18
52	43
53	48
54	56
55	49
56	30
57	13
58	0
60	0
62	0
63	1
64	0
65	2
66	4
67	5
68	10
69	38
70	16
71	3
72	0
73	0
76	0
77	1
78	1
79	2
80	5
81	26
82	133
83	12
84	3
85	1
91	1
93	1
94	0
95	3
96	0
99	1
104	0
106	1
107	0
108	4
110	833
111	40
112	3
113	1
