Mass Spectrum: 6-Nitro-2-phenyl-2H-indazole
Formula: C13H9N3O2
CAS: 61063-14-7
Molecular weight: 239
m/z	intensity
33	5
34	7
37	49
38	151
39	244
40	146
41	21
42	7
43	14
44	45
45	5
46	37
48	2
50	288
51	734
52	101
53	12
54	3
55	7
56	3
57	5
61	33
62	127
63	206
64	118
65	63
66	10
67	1
68	0
69	14
70	19
71	1
73	5
74	71
75	104
76	138
77	999
78	94
79	8
80	3
81	2
82	9
83	29
84	4
85	1
86	18
87	30
88	46
89	53
90	47
91	17
92	4
93	0
96	16
97	6
98	1
99	7
100	10
101	13
102	26
103	22
104	52
105	7
106	0
110	0
111	1
112	1
113	15
114	16
115	44
116	34
117	10
118	1
119	6
125	1
126	12
127	35
128	24
129	9
130	3
131	0
137	8
138	31
139	112
140	109
141	20
142	5
143	0
151	2
152	12
153	15
154	29
155	13
162	0
163	14
164	70
165	66
166	233
167	55
168	4
178	1
179	14
180	33
181	185
182	32
183	1
189	0
190	7
191	61
192	381
193	162
194	23
195	1
207	3
209	59
210	8
223	4
236	4
237	17
239	632
240	94
241	5
