Mass Spectrum: Pyrazol-3(3H)-one, 1,2-dihydro-1,5-dimethyl-4-(4-dimethylaminobenzylidenamino)-2-phenyl-
Formula: C20H22N4O
CAS: 61098-08-6
Molecular weight: 334
m/z	intensity
38	3
39	9
40	3
41	5
42	14
43	6
44	1
45	0
50	7
51	19
52	5
56	999
57	17
58	0
62	5
63	16
64	21
65	16
66	5
67	5
68	2
69	0
70	0
73	0
74	2
75	5
77	86
78	9
79	4
80	1
81	1
82	1
83	4
84	2
85	0
87	2
89	37
90	19
91	59
92	16
93	12
94	1
95	0
96	0
97	0
99	0
101	3
102	9
103	16
104	14
105	11
106	3
107	1
108	0
109	0
111	1
112	1
113	2
114	10
115	31
116	35
117	32
118	38
119	38
120	22
121	81
123	20
124	0
125	0
126	0
127	1
128	6
129	13
130	12
131	12
132	36
133	12
134	29
135	4
136	0
137	0
140	3
141	5
143	165
144	36
145	52
146	37
147	21
148	36
149	5
150	2
151	0
152	2
153	1
154	0
155	3
156	4
157	16
158	69
159	184
160	41
161	28
162	3
167	205
169	11
170	8
171	13
172	21
173	46
174	9
175	5
176	0
177	0
178	1
179	1
180	1
181	0
182	1
183	4
184	14
185	21
186	17
187	34
188	66
189	20
190	2
191	0
192	0
193	0
194	0
195	0
196	2
197	3
198	33
199	13
200	73
201	16
202	5
203	10
204	1
205	3
206	3
207	10
208	4
209	2
210	2
211	30
212	43
213	80
214	113
215	67
216	10
217	1
218	0
219	0
220	0
221	1
223	83
224	288
225	216
226	38
227	4
228	2
229	8
230	2
231	1
232	0
234	10
235	2
236	0
237	0
239	5
240	10
241	26
242	164
243	25
244	2
245	0
246	0
247	0
248	0
250	14
251	3
252	0
257	2
258	0
260	0
261	0
262	0
264	0
274	0
275	0
276	0
278	15
279	5
280	0
283	0
288	0
289	1
290	1
291	0
292	1
293	0
301	0
302	0
303	2
304	2
305	1
306	2
307	1
308	0
316	0
317	4
318	2
319	7
320	2
321	5
322	0
325	0
331	1
333	79
334	652
335	147
336	18
337	1
