Mass Spectrum: 3H-Pyrazol-3-one, 4-[[(4-chlorophenyl)methylene]amino]-1,2-dihydro-1,5-dimethyl-2-phenyl-
Formula: C18H16ClN3O
CAS: 61098-04-2
Molecular weight: 325
m/z	intensity
35	0
36	1
37	3
38	13
39	32
40	9
41	11
42	12
43	20
45	0
50	20
51	54
52	12
53	5
54	40
56	999
57	27
58	0
61	3
62	17
63	49
64	60
65	43
66	7
67	13
68	2
69	1
70	0
71	0
73	10
74	8
75	21
76	18
77	126
78	10
79	1
80	0
81	2
82	12
83	9
84	1
85	2
86	4
87	10
88	15
89	66
90	17
91	103
92	12
93	13
94	1
95	1
96	1
97	4
98	1
99	5
100	2
101	6
102	9
103	7
104	7
105	3
106	2
107	0
108	0
109	2
110	7
111	16
112	3
113	10
114	24
115	25
116	5
117	4
119	89
121	219
122	20
123	38
124	13
125	18
126	4
127	3
128	4
129	3
130	5
131	3
132	2
133	1
134	0
135	0
137	16
138	14
139	23
140	11
141	9
142	4
143	2
144	2
145	5
146	3
147	1
149	10
150	42
151	12
152	29
154	8
155	1
156	2
157	2
158	3
159	14
160	11
162	31
164	22
165	4
166	3
167	0
168	0
169	4
170	3
171	11
172	1
173	2
174	0
175	1
176	4
177	3
178	6
179	4
180	3
181	0
182	0
184	4
185	3
186	7
187	34
188	215
189	26
191	32
192	5
193	8
194	1
196	0
197	1
198	1
199	1
200	0
202	0
203	3
204	15
205	68
206	29
207	23
208	7
209	0
212	0
214	18
216	93
217	15
218	29
219	4
220	0
229	0
230	0
231	4
232	37
233	132
234	28
235	40
236	5
239	0
240	0
241	2
242	0
243	0
248	4
249	0
250	1
266	0
267	1
268	0
269	1
273	2
274	0
275	0
279	0
280	0
281	1
282	0
283	1
290	1
291	0
295	0
296	2
297	2
298	1
299	0
307	1
308	3
309	0
310	2
311	0
312	0
321	3
322	1
324	25
325	520
326	114
327	175
328	33
329	3
