Mass Spectrum: 1-Propanone, 2,3-dibromo-1,3-diphenyl-
Formula: C15H12Br2O
CAS: 611-91-6
Molecular weight: 366
m/z	intensity
27	10
29	0
31	0
36	0
37	0
38	1
39	16
41	0
42	0
44	0
49	0
50	32
51	129
52	18
53	3
54	0
55	0
56	2
58	0
59	0
61	0
62	4
63	18
64	3
65	2
66	0
69	0
73	0
74	11
75	20
76	47
77	413
78	37
79	4
80	2
81	3
82	2
83	0
84	0
85	0
86	1
87	3
88	3
89	30
90	7
91	1
94	0
95	0
96	0
98	1
99	1
100	0
101	6
102	73
103	176
104	25
105	999
106	94
107	6
108	0
110	0
111	0
112	0
113	1
114	0
115	4
116	0
118	0
122	0
125	0
126	1
127	1
128	1
129	2
130	36
131	134
132	12
133	1
134	0
135	3
137	3
138	0
139	2
140	0
141	0
142	0
143	0
144	0
145	0
147	0
149	0
150	2
151	6
152	11
153	3
154	1
155	0
156	0
157	0
158	0
160	1
161	0
162	0
163	1
164	1
165	30
166	5
167	1
168	0
169	3
170	0
171	3
172	0
174	0
175	1
176	7
177	6
178	40
179	71
180	19
181	4
182	58
183	4
184	47
185	4
186	0
187	0
188	0
189	4
190	2
191	3
192	1
193	2
194	0
205	0
206	1
207	271
208	180
209	30
210	2
211	1
212	0
214	3
216	7
217	0
218	4
219	2
220	0
221	0
222	2
224	4
226	3
227	0
228	1
230	0
235	0
237	0
263	0
268	0
270	0
285	0
287	99
288	16
289	83
290	16
291	1
366	1
367	0
368	2
369	0
370	1
371	0
