Mass Spectrum: 2,4(1H,3H)-Pyrimidinedione, 5-nitro-
Formula: C4H3N3O4
CAS: 611-08-5
Molecular weight: 157
m/z	intensity
12	25
13	9
14	10
15	33
16	25
17	4
18	17
24	8
25	12
26	103
27	589
28	999
29	175
30	434
31	3
32	9
36	2
37	2
38	61
39	147
40	396
41	67
42	237
43	897
44	787
45	18
46	39
47	1
48	61
50	4
51	9
52	69
53	200
54	125
55	71
56	202
57	25
58	2
60	5
61	2
63	1
64	2
65	6
66	10
67	583
68	74
69	64
70	288
71	195
72	8
73	8
74	1
77	6
78	4
79	8
80	5
81	45
82	19
83	16
84	16
85	6
86	6
87	3
91	7
92	3
93	5
94	5
95	9
96	41
97	24
98	89
99	76
100	5
110	9
111	11
112	9
113	5
114	36
115	22
116	4
117	3
126	2
127	86
128	7
129	5
130	2
140	3
141	35
142	3
143	2
154	1
155	1
157	735
158	44
159	9
