Mass Spectrum: 1,2,4-Methenocyclobut[cd]inden-3(1H)-one, octahydro-
Formula: C11H12O
CAS: 61109-83-9
Molecular weight: 160
m/z	intensity
26	38
27	116
29	7
31	1
36	0
37	11
38	29
39	195
40	23
41	54
42	3
43	5
44	1
45	0
48	0
49	6
50	84
51	190
52	108
53	98
54	85
55	30
56	3
57	6
58	7
59	1
60	0
61	8
62	26
63	82
64	56
65	187
66	113
67	167
68	14
69	10
70	3
71	3
72	0
73	4
74	26
75	20
76	24
77	294
78	600
79	678
80	636
81	95
82	828
83	52
84	4
85	3
86	5
87	8
88	4
89	39
90	15
91	999
92	113
93	12
94	37
95	15
96	1
97	9
98	5
99	2
100	1
101	5
102	39
103	170
104	518
105	105
106	19
107	5
108	0
109	0
110	0
111	0
112	0
113	1
114	2
115	344
116	316
117	907
118	146
119	42
120	3
121	0
122	1
124	0
125	0
126	4
127	43
128	60
129	94
130	18
131	389
132	135
133	21
134	1
135	0
136	0
139	0
141	42
142	39
143	21
144	11
145	145
146	13
147	1
148	2
149	1
150	0
151	0
152	0
153	0
155	0
157	0
158	1
159	52
160	198
161	26
162	2
