Mass Spectrum: 4-Benzylamino-4H-1,2,4-triazole
Formula: C9H10N4
CAS: 6111-75-7
Molecular weight: 174
m/z	intensity
26	18
27	88
28	68
29	9
30	4
38	11
39	80
40	14
41	23
42	13
43	4
50	52
51	114
52	32
53	6
62	6
63	23
64	6
65	102
66	4
69	6
74	4
76	8
77	44
78	18
79	6
89	11
90	4
91	999
92	73
104	16
105	33
106	20
107	8
174	285
175	30
