Mass Spectrum: 1H-1,2,3-Triazole, 5-methyl-1-phenyl-
Formula: C9H9N3
CAS: 6111-96-2
Molecular weight: 159
m/z	intensity
37	45
38	99
39	209
40	25
41	16
42	4
43	3
44	9
45	1
48	0
49	14
50	205
51	647
52	86
53	11
54	16
55	3
56	0
57	0
58	0
59	1
60	0
61	12
62	32
63	90
64	64
65	36
66	3
67	1
69	1
72	0
73	8
74	41
75	40
76	165
77	999
78	90
79	4
83	1
85	2
86	1
87	3
88	6
89	50
90	38
91	16
92	1
93	0
100	1
101	2
102	11
103	251
104	54
105	3
116	10
117	1
118	7
130	707
131	166
132	12
133	0
149	0
159	135
160	14
