Mass Spectrum: 2,5-Dimethyl-1-oxo-1-phenyl-phosphinan-4-one
Formula: C13H17O2P
CAS: 61124-02-5
Molecular weight: 236
m/z	intensity
39	95
40	28
41	224
42	81
43	21
47	221
50	19
51	91
52	12
53	10
55	21
57	8
63	9
65	16
67	11
69	999
70	53
71	8
75	7
76	8
77	252
78	49
79	30
81	20
89	9
91	46
92	7
93	7
94	8
95	25
96	47
97	10
103	7
104	8
105	24
107	23
108	19
109	11
111	7
115	17
117	15
119	8
123	8
124	210
125	422
126	32
129	12
130	17
133	7
140	10
141	18
142	25
145	17
147	9
151	11
165	66
166	239
167	29
168	7
170	11
176	10
179	7
192	14
194	654
195	70
221	39
234	8
235	17
236	369
237	54
