Mass Spectrum: 3,7-Dimethyl-(1,2,4)-triazolo(4,3-b)(1,2,4)-triazine
Formula: C6H7N5
CAS: 61139-72-8
Molecular weight: 149
m/z	intensity
38	301
39	478
40	428
41	279
42	602
51	329
52	644
53	642
67	307
79	499
80	247
81	999
108	218
121	138
149	865
150	129
