Mass Spectrum: L-Leucine, N-formyl-
Formula: C7H13NO3
CAS: 6113-61-7
Molecular weight: 159
m/z	intensity
14	2
15	31
16	2
17	9
18	47
19	2
26	10
27	165
28	331
29	178
30	225
31	6
32	4
37	4
38	9
39	110
40	18
41	352
42	134
43	361
44	536
45	33
46	516
47	9
49	1
50	6
51	9
52	5
53	25
54	17
55	36
56	33
57	131
58	192
59	43
60	4
65	2
66	2
67	18
68	24
69	519
70	104
71	80
72	518
73	48
74	119
75	23
76	2
80	2
81	19
82	5
83	2
84	13
85	613
86	170
87	12
88	15
89	2
95	10
96	24
97	7
98	100
99	43
100	7
102	43
103	541
104	21
105	4
111	1
112	7
113	21
114	999
115	96
116	47
117	6
123	1
126	3
130	2
131	3
141	3
144	6
159	8
160	1
