Mass Spectrum: Cyclohexane-1,3-dicarboxylic acid dipiperidide
Formula: C18H30N2O2
CAS: 61135-73-7
Molecular weight: 306
m/z	intensity
51	51
53	40
54	70
55	98
56	38
67	38
68	29
69	319
70	28
79	19
81	58
82	20
83	100
84	999
85	98
86	128
109	29
112	428
113	30
127	59
138	30
140	180
141	19
152	99
153	49
154	20
164	19
165	78
166	39
167	39
180	30
192	29
193	378
194	567
195	198
196	40
219	19
221	90
222	168
223	19
306	478
307	70
