Mass Spectrum: 2,6,7-Trimethyl-(1,2,4)-triazolo(2,3-b)(1,2,4)-triazine
Formula: C7H9N5
CAS: 61139-77-3
Molecular weight: 163
m/z	intensity
26	460
27	726
28	332
38	329
39	736
40	728
41	875
42	999
43	260
50	260
51	532
52	734
53	534
54	261
55	199
66	333
67	929
77	332
79	261
93	400
94	260
107	49
120	471
134	672
135	533
163	272
164	129
