Mass Spectrum: 1,3,7,11-Cyclotetradecatetraene
Formula: C14H20
CAS: 61142-50-5
Molecular weight: 188
m/z	intensity
23	0
24	0
26	3
27	86
28	16
29	31
32	1
35	0
37	2
38	4
39	166
40	22
41	205
42	7
43	3
44	0
45	0
47	0
48	0
50	8
51	31
52	31
53	61
54	167
55	34
56	2
58	1
59	1
60	0
61	0
62	2
63	10
64	3
65	67
66	45
67	216
68	17
69	5
70	1
71	0
74	4
75	8
76	5
77	122
78	87
79	569
80	999
81	93
82	4
83	1
84	0
87	1
88	0
89	3
90	3
91	156
92	103
93	99
94	31
95	17
96	2
97	2
98	0
102	2
103	8
104	17
105	65
106	91
107	32
108	15
109	5
110	0
111	0
113	1
114	1
115	9
116	4
117	35
118	14
119	62
120	25
121	16
122	5
123	0
126	0
127	1
128	4
129	4
130	2
131	39
132	16
133	19
134	32
135	3
139	0
141	1
142	0
143	2
144	2
145	31
146	21
147	19
148	3
153	0
157	2
158	1
159	24
160	15
161	2
169	0
171	0
173	18
174	2
186	3
187	2
188	35
189	5
190	0
