Mass Spectrum: Cyclohexene, 5,6-diethenyl-1-methyl-
Formula: C11H16
CAS: 61141-78-4
Molecular weight: 148
m/z	intensity
25	0
26	5
27	89
28	10
29	35
30	0
32	0
34	0
35	0
36	0
37	1
38	6
39	129
40	19
41	118
42	7
43	3
45	0
47	0
49	0
50	14
51	48
52	23
53	69
54	20
55	34
56	2
58	4
59	2
60	0
61	0
62	3
63	15
64	6
65	54
66	23
67	38
68	8
69	2
70	4
71	1
72	0
73	0
74	2
75	6
76	3
77	153
78	51
79	999
80	146
81	26
82	4
83	0
84	0
85	0
86	0
87	0
88	0
89	4
90	2
91	157
92	53
93	124
94	578
95	42
96	2
97	0
99	0
101	0
102	2
103	13
104	6
105	93
106	67
107	32
108	2
109	0
111	0
113	0
114	0
115	13
116	5
117	14
118	5
119	57
120	24
121	3
122	0
126	0
127	1
128	3
129	2
130	1
131	4
132	1
133	75
134	8
135	0
139	0
141	0
142	0
145	0
146	0
147	3
148	61
149	6
150	0
