Mass Spectrum: 2-Octene, 2-methoxy-
Formula: C9H18O
CAS: 61142-42-5
Molecular weight: 142
m/z	intensity
39	70
40	10
41	120
42	50
43	200
44	21
45	40
51	10
52	10
53	40
54	20
55	490
56	40
57	20
59	20
67	30
68	10
69	30
70	10
71	30
72	150
73	10
83	10
85	999
86	70
99	50
113	8
127	7
141	2
142	50
