Mass Spectrum: Cyclopentane, 3-hexyl-1,1-dimethyl-
Formula: C13H26
CAS: 61142-65-2
Molecular weight: 182
m/z	intensity
24	1
25	0
26	3
27	103
28	4
29	173
30	6
33	0
36	0
37	4
38	1
39	75
40	15
41	467
42	108
43	297
44	0
47	0
49	0
50	0
51	4
52	3
53	39
54	38
55	531
56	999
57	550
58	20
63	1
65	8
66	6
67	64
68	61
69	598
70	327
71	80
72	3
77	6
78	0
79	11
80	3
81	35
82	40
83	193
84	139
85	43
86	1
91	1
93	1
95	20
96	17
97	136
98	50
99	4
109	3
110	6
111	67
112	19
113	0
124	7
125	10
126	55
127	5
138	3
139	11
140	6
153	0
154	24
155	2
167	10
168	1
182	20
183	2
