Mass Spectrum: Benzonitrile, 3-benzyloxy-
Formula: C14H11NO
CAS: 61147-43-1
Molecular weight: 209
m/z	intensity
26	6
27	7
28	14
29	1
32	0
37	4
38	9
39	54
40	3
41	12
42	0
49	0
50	10
51	24
52	6
53	1
61	1
62	6
63	30
64	15
65	101
66	5
74	2
75	6
76	5
77	8
78	1
79	0
86	0
87	0
88	1
89	16
90	20
91	999
92	70
93	2
102	3
105	1
118	1
119	2
127	0
151	0
152	1
153	0
154	0
180	1
181	0
206	0
209	43
210	6
211	0
