Mass Spectrum: Cyclohexene, 1-ethyl-6-ethylidene-
Formula: C10H16
CAS: 61141-57-9
Molecular weight: 136
m/z	intensity
27	73
28	351
29	72
38	0
39	113
40	105
41	124
43	14
50	6
51	44
52	17
53	63
54	1
55	41
63	12
65	60
66	7
67	66
68	0
77	552
78	31
79	439
80	28
81	9
91	298
92	32
93	169
94	14
103	10
105	98
106	15
107	999
108	100
115	2
117	1
119	4
121	90
122	1
135	1
136	343
137	28
