Mass Spectrum: 1-Propene, 1-(2-propenyloxy)-, (Z)-
Formula: C6H10O
CAS: 61142-12-9
Molecular weight: 98
m/z	intensity
25	1
26	22
27	94
28	79
29	80
30	16
31	16
36	0
37	6
38	18
39	225
40	32
41	999
42	118
43	104
44	1
45	1
46	0
49	0
50	4
51	4
52	2
53	14
54	10
55	75
56	181
57	92
58	37
59	1
60	0
61	1
63	1
65	4
66	2
67	15
68	6
69	158
70	46
71	5
73	0
77	3
79	8
80	19
81	4
82	0
83	44
84	4
89	0
91	0
92	0
93	0
95	2
96	5
97	10
98	86
99	6
