Mass Spectrum: Benzocyclodecene, tetradecahydro-
Formula: C14H26
CAS: 61142-06-1
Molecular weight: 194
m/z	intensity
22	0
25	1
26	2
27	57
28	13
29	137
30	4
32	1
34	0
35	1
37	2
38	1
39	73
40	13
41	503
42	54
43	141
44	4
45	1
46	1
47	0
48	1
49	1
50	1
51	5
52	3
53	58
54	147
55	619
56	90
57	82
58	3
59	0
61	1
62	0
63	1
64	1
65	12
66	44
67	578
68	205
69	307
70	51
71	27
72	2
74	1
75	1
76	1
77	19
78	5
79	47
80	43
81	472
82	769
83	359
84	31
85	11
86	2
88	0
89	1
91	8
92	2
93	17
94	32
95	243
96	999
97	305
98	23
99	2
101	0
103	0
104	1
105	1
107	5
108	12
109	137
110	69
111	30
112	6
113	0
115	0
119	1
121	3
122	7
123	54
124	59
125	9
126	10
127	0
128	0
135	2
136	4
137	35
138	49
139	12
140	8
141	1
142	0
145	0
146	0
149	1
150	2
151	15
152	27
153	5
154	2
155	0
160	0
165	9
166	15
167	2
168	0
170	0
171	0
178	1
179	6
180	9
181	1
183	0
191	0
193	1
194	29
195	4
