Mass Spectrum: Cyclooctanecarboxylic acid, 4,5-dimethyl-, methyl ester
Formula: C12H22O2
CAS: 61141-73-9
Molecular weight: 198
m/z	intensity
25	1
26	11
27	96
28	50
29	148
30	5
31	24
32	10
33	1
34	1
35	0
36	3
37	1
38	5
39	114
40	20
41	439
42	59
43	218
44	9
45	18
46	0
47	0
48	1
50	2
51	10
52	10
53	80
54	31
55	573
56	82
57	207
58	11
59	96
60	5
61	3
62	2
63	4
64	3
65	18
66	13
67	186
68	148
69	999
70	71
71	19
72	1
73	21
74	817
75	116
76	8
77	25
78	9
79	45
80	12
81	185
82	137
83	227
84	27
85	31
86	2
87	939
88	159
89	10
90	1
91	25
92	5
93	47
94	12
95	175
96	46
97	77
98	13
100	1
101	10
102	3
103	2
105	9
106	8
107	43
108	11
109	179
110	75
111	88
112	12
113	9
114	2
115	3
116	2
117	4
119	5
120	3
121	11
122	73
123	67
124	215
125	798
126	83
127	12
128	7
129	4
130	0
131	1
133	40
134	3
135	3
136	1
137	8
138	9
139	1
141	3
142	13
143	1
144	0
145	0
146	1
147	4
148	52
149	131
150	16
151	40
152	3
155	3
156	1
162	1
164	1
165	10
166	56
167	53
168	4
169	0
179	0
180	14
181	0
182	0
183	0
188	0
190	1
191	1
192	0
197	0
198	35
199	5
