Mass Spectrum: Cyclohexane, (3-methylpentyl)-
Formula: C12H24
CAS: 61142-38-9
Molecular weight: 168
m/z	intensity
24	0
25	1
26	5
27	109
29	232
30	5
36	1
38	2
39	94
40	14
41	442
42	44
43	205
46	3
48	0
51	6
52	4
53	37
54	60
55	882
56	207
57	357
58	14
62	2
63	1
65	8
66	6
67	182
68	27
69	244
70	81
71	59
72	2
75	0
76	0
77	6
78	1
79	9
80	4
81	50
82	359
83	999
84	87
85	7
91	1
92	0
93	0
95	4
96	24
97	137
98	11
99	0
109	3
110	1
111	8
112	2
113	0
115	1
125	1
138	22
139	117
140	11
141	0
153	1
166	0
168	18
169	1
