Mass Spectrum: Cyclohexane, (1,2,2-trimethylbutyl)-
Formula: C13H26
CAS: 61142-21-0
Molecular weight: 182
m/z	intensity
23	2
24	2
25	0
26	6
27	64
29	86
30	3
31	0
32	2
33	1
34	1
35	2
36	0
38	3
39	50
40	3
41	241
42	55
43	729
49	0
51	14
52	3
53	25
54	15
55	351
56	24
57	123
58	7
60	0
61	1
62	2
63	4
64	0
65	13
66	6
67	43
68	11
69	269
70	999
71	909
72	51
73	4
74	1
75	1
76	0
77	28
78	10
79	35
80	4
81	50
82	23
83	98
84	17
85	13
86	0
87	0
88	1
89	0
90	1
91	97
92	9
93	4
95	16
96	1
97	110
98	10
99	4
100	0
101	1
102	1
103	16
104	22
105	165
106	106
107	8
108	1
109	3
110	58
111	58
112	7
113	1
115	5
116	4
117	7
118	1
119	0
123	1
124	1
126	0
127	0
128	8
129	1
130	0
131	3
132	2
137	0
138	1
143	0
145	4
147	9
148	1
152	1
153	4
159	0
162	1
163	0
164	1
165	1
166	2
167	0
175	0
176	1
180	1
