Mass Spectrum: Cyclohexane, (1,3-dimethylbutyl)-
Formula: C12H24
CAS: 61142-19-6
Molecular weight: 168
m/z	intensity
23	0
25	2
26	6
27	127
29	153
30	4
31	0
33	0
34	1
36	1
38	2
39	109
40	14
41	545
42	70
43	879
44	1
47	0
49	1
50	1
51	5
52	7
53	48
54	86
55	999
56	290
57	181
58	7
61	5
62	0
63	2
64	0
65	11
66	9
67	386
68	39
69	700
70	48
71	29
72	1
74	2
76	1
77	10
78	1
79	20
80	6
81	66
82	962
83	906
84	361
85	232
86	12
90	0
91	6
92	0
93	1
95	39
96	1
97	41
98	2
99	1
103	0
104	0
105	17
106	5
108	0
109	6
110	54
111	220
112	22
113	0
122	0
123	1
124	3
125	11
128	1
133	0
138	0
139	0
140	0
141	0
145	0
152	0
153	1
154	0
162	1
163	0
168	41
169	5
