Mass Spectrum: Cyclopentene, 5-hexyl-3,3-dimethyl-
Formula: C13H24
CAS: 61142-66-3
Molecular weight: 180
m/z	intensity
26	1
27	73
29	96
30	1
32	0
37	0
38	2
39	65
40	13
41	215
42	29
43	108
44	2
46	0
48	1
49	0
50	2
51	12
52	6
53	52
54	19
55	193
56	34
57	34
58	2
59	2
60	1
61	0
62	2
63	3
64	2
65	23
66	9
67	246
68	37
69	79
70	29
73	1
75	2
77	56
78	11
79	77
80	29
81	680
82	134
83	49
84	12
85	1
88	0
89	0
90	1
91	35
92	2
93	53
94	30
95	999
96	166
97	33
98	3
103	1
104	0
105	4
106	1
107	7
108	4
109	120
110	23
111	2
112	1
113	0
114	0
117	0
119	1
120	0
121	1
123	32
124	9
125	1
126	9
127	1
129	0
131	0
134	0
135	0
137	3
138	3
142	0
143	0
149	0
151	5
152	0
163	0
164	0
165	174
166	23
167	1
168	0
178	2
179	0
180	22
181	3
182	0
