Mass Spectrum: Cyclooctene, 3-(2-propenyl)-
Formula: C11H18
CAS: 61141-59-1
Molecular weight: 150
m/z	intensity
26	3
27	90
28	20
29	65
38	4
39	149
40	21
41	277
42	15
43	50
50	3
51	24
52	14
53	69
54	61
55	205
56	8
63	7
65	44
66	30
67	999
68	89
69	18
77	74
78	17
79	175
80	63
81	159
82	34
83	8
91	43
92	7
93	57
94	50
95	23
96	11
103	0
105	4
106	0
107	37
108	41
109	506
110	45
111	0
121	33
122	27
123	1
135	33
136	8
150	18
151	1
