Mass Spectrum: Cyclopentane, 1-hexyl-3-methyl-
Formula: C12H24
CAS: 61142-68-5
Molecular weight: 168
m/z	intensity
24	0
25	2
26	5
27	114
29	143
30	5
32	0
33	1
35	2
36	13
38	3
39	95
40	8
41	453
42	108
43	281
44	15
45	3
46	1
47	1
48	1
49	2
50	4
51	5
52	3
53	44
54	52
55	999
56	471
57	219
58	7
59	1
65	6
66	10
67	227
68	47
69	286
70	331
71	104
72	2
73	3
74	0
75	3
76	0
77	6
79	12
80	7
81	98
82	308
83	743
84	131
85	24
87	1
90	1
91	1
93	2
95	9
96	41
97	221
98	56
99	5
105	3
109	3
110	10
111	40
112	37
115	1
117	1
119	1
121	1
125	12
126	9
128	0
129	1
133	16
134	0
135	3
138	2
139	29
140	45
141	1
153	1
168	9
169	0
