Mass Spectrum: 3-Heptene, 4-methoxy-
Formula: C8H16O
CAS: 61142-44-7
Molecular weight: 128
m/z	intensity
38	20
39	350
40	70
41	770
42	140
43	400
44	40
45	410
46	10
50	11
51	40
52	20
53	210
54	50
55	700
56	60
57	110
58	20
59	120
65	50
66	20
67	200
68	40
69	80
70	20
71	460
72	790
73	40
77	30
79	70
80	10
81	290
82	30
83	36
85	590
86	40
95	20
97	20
98	10
99	20
100	70
111	10
113	999
114	80
127	20
128	320
129	20
