Mass Spectrum: 2,4-Dimethyl-2-thiazoline
Formula: C5H9NS
CAS: 6114-40-5
Molecular weight: 115
m/z	intensity
31	51
37	20
38	68
39	311
40	140
41	999
42	710
43	151
45	399
46	258
47	89
48	19
52	30
54	20
55	19
57	39
58	139
59	479
60	29
61	30
68	209
69	388
70	29
71	69
72	50
73	180
74	997
75	79
76	90
91	30
92	29
100	70
115	730
116	59
117	39
