Mass Spectrum: Cyclohexane, 1,2-diethyl-3-methyl-
Formula: C11H22
CAS: 61141-80-8
Molecular weight: 154
m/z	intensity
25	1
26	4
27	63
28	14
29	98
30	2
31	0
35	1
36	1
37	1
38	3
39	62
40	12
41	270
42	46
43	123
44	3
45	0
46	0
47	0
49	0
50	1
51	7
52	3
53	36
54	15
55	479
56	119
57	214
58	9
59	0
61	0
62	0
63	1
64	0
65	9
66	4
67	62
68	24
69	999
70	141
71	28
72	1
73	0
74	0
75	0
76	0
77	9
78	1
79	11
80	2
81	29
82	24
83	395
84	73
85	12
86	0
89	0
90	0
91	5
93	11
94	1
95	42
96	10
97	35
98	16
99	2
100	0
102	0
103	0
108	0
109	3
110	4
111	22
113	0
116	0
117	0
119	0
121	0
123	2
124	42
125	463
126	47
127	1
129	0
131	0
139	0
141	0
152	0
153	0
154	51
155	5
156	0
