Mass Spectrum: Cyclopentane, 1,3-dimethyl-2-(1-methylethenyl)-, (1.alpha.,2.alpha.,3.beta.)-
Formula: C10H18
CAS: 61142-31-2
Molecular weight: 138
m/z	intensity
27	155
29	122
30	4
37	3
38	8
39	202
41	348
42	34
43	52
45	0
46	0
47	0
48	0
49	2
50	11
51	31
52	14
53	93
54	46
55	357
56	39
57	25
58	2
59	0
60	0
62	1
63	6
64	1
65	36
66	18
67	544
68	58
69	65
70	17
71	2
73	0
74	0
75	0
76	0
77	39
78	8
79	79
80	29
81	999
82	377
83	551
84	49
85	1
87	0
89	0
90	0
91	22
92	2
93	18
94	31
95	191
96	281
97	35
98	2
101	0
102	0
103	1
104	0
105	4
106	0
107	5
108	1
109	43
110	18
111	1
114	0
115	0
120	0
121	2
122	0
123	105
124	11
125	0
126	0
127	0
128	0
132	0
135	4
137	1
138	68
139	7
140	0
