Mass Spectrum: Cyclopentene, 1-ethenyl-3-methylene-
Formula: C8H10
CAS: 61142-07-2
Molecular weight: 106
m/z	intensity
25	0
26	12
27	122
28	10
29	3
30	0
31	1
35	0
37	7
38	19
39	177
40	30
41	54
42	1
43	1
44	0
45	0
47	1
48	0
49	5
50	70
51	184
52	94
53	79
54	15
55	4
56	1
58	0
60	1
61	7
62	17
63	54
64	9
65	138
66	36
67	13
68	0
69	0
70	0
72	0
73	3
74	21
75	17
76	13
77	223
78	265
79	253
80	20
81	1
82	0
85	2
86	2
87	1
88	1
89	12
90	5
91	999
92	70
93	3
94	0
97	1
98	1
99	0
101	8
102	12
103	88
104	28
105	329
106	814
107	68
108	3
