Mass Spectrum: Cyclohexane, 1,2-diethyl-1-methyl-
Formula: C11H22
CAS: 61141-79-5
Molecular weight: 154
m/z	intensity
25	0
26	6
27	81
28	29
29	137
30	4
36	6
37	1
38	2
39	83
40	14
41	351
42	66
43	143
44	4
45	0
46	0
47	0
48	0
49	0
50	2
51	10
52	5
53	47
54	20
55	703
56	131
57	266
58	12
59	0
61	0
62	0
63	1
64	0
65	12
66	6
67	83
68	24
69	999
70	513
71	128
72	7
73	0
75	0
76	0
77	14
78	3
79	16
80	3
81	41
82	28
83	593
84	80
85	9
86	0
89	0
91	52
92	1
93	2
94	1
95	31
96	23
97	79
98	34
99	4
100	1
101	0
102	0
104	0
105	0
107	0
108	0
109	5
110	1
111	6
112	7
113	0
115	0
116	0
119	1
121	0
122	0
123	1
124	104
125	660
126	75
127	4
128	0
129	0
130	0
131	0
132	0
133	0
137	0
138	0
139	14
140	1
141	0
143	0
145	0
154	201
155	2
