Mass Spectrum: Cyclopropane, 1,1-dimethyl-2-(2,4-pentadienyl)-
Formula: C10H16
CAS: 61141-99-9
Molecular weight: 136
m/z	intensity
27	255
28	38
29	113
30	2
31	1
32	3
34	0
36	0
37	5
38	18
39	366
40	49
41	999
42	45
43	75
44	7
47	0
48	0
49	1
50	26
51	73
52	49
53	122
54	80
55	141
56	22
57	17
58	3
59	0
61	1
62	6
63	20
64	6
65	83
66	54
67	276
68	39
69	563
70	36
71	3
72	3
73	0
74	3
75	3
76	3
77	230
78	131
79	773
80	470
81	64
82	95
83	11
84	1
85	0
86	0
87	0
89	3
90	1
91	156
92	26
93	200
94	43
95	133
96	11
97	0
99	0
100	0
101	0
102	1
103	6
104	3
105	34
106	7
107	29
108	14
109	4
110	1
115	4
116	0
117	4
118	1
119	16
120	3
121	60
122	6
123	3
127	0
128	0
129	0
130	0
131	0
133	4
134	4
135	1
136	13
137	1
138	0
