Mass Spectrum: Decane, 4,5-dibromo-, (R*,R*)-
Formula: C10H20Br2
CAS: 61141-70-6
Molecular weight: 298
m/z	intensity
25	1
26	9
27	188
28	17
29	229
30	5
32	0
33	0
34	0
35	0
36	4
37	1
38	4
39	151
40	24
41	614
42	119
43	289
44	1
45	0
46	0
48	0
50	5
51	16
52	9
53	85
54	70
55	999
56	212
57	309
58	16
60	0
61	0
62	0
63	3
64	0
65	22
66	9
67	159
68	60
69	642
70	138
71	97
72	5
73	1
74	0
75	0
77	37
78	3
79	28
80	12
81	93
82	40
83	848
84	95
85	34
86	1
87	0
89	1
91	6
92	1
93	4
94	1
95	45
96	14
97	297
98	35
99	3
100	0
101	0
104	0
105	0
106	0
107	6
108	1
109	17
110	3
111	13
112	7
113	1
115	0
117	0
118	0
119	8
120	4
121	14
122	4
123	4
125	0
126	0
130	0
131	0
132	0
133	3
134	0
135	9
136	0
137	4
138	20
139	124
140	66
141	6
142	0
143	0
144	0
145	0
147	1
148	1
149	6
150	1
151	4
155	0
160	0
161	0
162	0
163	6
164	1
165	5
166	0
168	0
169	1
175	0
176	0
177	3
178	0
179	2
180	0
182	0
184	0
186	0
189	0
191	0
195	0
203	0
206	0
210	0
217	0
218	1
219	39
220	5
221	41
222	5
223	0
249	0
251	0
269	0
271	0
281	0
282	0
283	0
