Mass Spectrum: Cyclohexane, 1,2,4,5-tetraethyl-, (1.alpha.,2.alpha.,4.alpha.,5.alpha.)-
Formula: C14H28
CAS: 61142-24-3
Molecular weight: 196
m/z	intensity
24	1
25	1
26	5
27	95
28	25
29	206
30	4
31	0
32	0
33	0
34	0
37	2
39	67
40	8
41	493
42	51
43	343
44	3
45	0
46	0
47	0
48	0
50	1
51	6
52	3
53	47
54	20
55	999
56	121
57	346
58	14
59	0
60	0
63	1
64	0
65	14
66	4
67	82
68	25
69	841
70	108
71	239
72	11
73	0
74	2
75	0
76	0
77	16
78	3
79	21
80	3
81	52
82	15
83	470
84	47
85	149
86	9
91	7
92	0
93	4
94	1
95	39
96	18
97	665
98	103
99	11
100	0
105	6
107	1
108	0
109	22
110	7
111	486
112	42
113	2
114	0
123	6
124	1
125	75
126	7
137	21
138	3
139	1
140	6
141	0
165	2
166	24
167	171
168	20
169	0
196	6
197	0
