Mass Spectrum: Cyclohexane, 2,4-diethyl-1-methyl-
Formula: C11H22
CAS: 61142-70-9
Molecular weight: 154
m/z	intensity
25	1
26	4
27	66
28	57
29	94
30	2
31	0
35	0
37	1
39	56
40	11
41	260
42	37
43	102
44	10
50	1
51	7
52	3
53	31
54	20
55	459
56	81
57	232
58	9
63	1
65	8
66	2
67	52
68	20
69	999
70	117
71	21
72	0
73	1
74	0
77	10
78	1
79	8
80	1
81	29
82	14
83	384
84	34
85	3
91	3
92	0
93	2
95	38
96	11
97	24
98	8
99	0
109	6
110	1
111	4
112	4
123	4
124	77
125	382
126	33
127	0
139	0
154	21
155	2
