Mass Spectrum: 2-Hexanone, 4-hydroxy-5-methyl-3-propyl-
Formula: C10H20O2
CAS: 61141-74-0
Molecular weight: 172
m/z	intensity
24	0
25	3
26	27
27	227
28	63
29	205
30	5
31	6
32	1
33	0
34	0
36	1
37	9
38	15
39	107
40	16
41	330
42	53
43	999
44	27
45	6
48	0
49	1
50	5
51	5
52	1
53	9
54	4
55	20
56	8
57	116
58	371
59	23
60	1
63	0
65	0
66	0
67	2
68	0
69	2
70	1
71	43
72	124
73	6
74	0
75	0
77	0
78	0
79	0
81	0
82	0
83	1
84	0
85	48
86	2
87	0
94	1
97	0
98	0
100	57
101	4
102	0
111	0
125	1
129	0
