Mass Spectrum: 1,3,7,11-Cyclotetradecatetraene, 2-methyl-
Formula: C15H22
CAS: 61141-96-6
Molecular weight: 202
m/z	intensity
27	88
28	128
29	59
30	2
31	19
32	5
36	0
37	0
38	3
39	148
40	22
41	236
42	13
43	13
44	5
45	2
46	0
47	0
48	0
49	1
50	5
51	27
52	17
53	89
54	203
55	88
56	9
57	14
58	4
59	40
60	2
61	1
62	1
63	7
64	3
65	60
66	37
67	179
68	25
69	22
70	4
71	4
72	0
73	12
74	2
75	3
76	1
77	180
78	54
79	999
80	228
81	213
82	33
83	6
84	2
85	1
86	1
87	4
88	0
89	3
90	1
91	235
92	88
93	429
94	439
95	76
96	7
97	2
98	1
99	1
100	0
101	1
102	1
103	8
104	13
105	141
106	157
107	96
108	40
109	17
110	2
111	1
112	0
113	0
114	0
115	10
116	4
117	36
118	19
119	110
120	71
121	36
122	20
123	4
124	0
125	0
126	0
127	2
128	4
129	9
130	2
131	61
132	25
133	140
134	53
135	25
136	6
137	0
139	0
141	1
142	0
143	2
144	1
145	54
146	27
147	32
148	30
149	3
150	0
151	0
152	0
153	0
155	0
157	1
158	0
159	39
160	23
161	18
162	3
163	0
168	0
169	0
170	0
171	0
172	0
173	47
174	25
175	2
176	0
183	0
185	0
186	0
187	44
188	8
189	1
194	0
195	0
196	0
199	0
200	0
201	1
202	108
203	18
204	2
