Mass Spectrum: Cyclohexane, (2,2-dimethylcyclopentyl)-
Formula: C13H24
CAS: 61142-23-2
Molecular weight: 180
m/z	intensity
23	0
26	6
27	77
29	105
30	2
31	2
32	0
33	0
34	0
38	1
39	98
40	21
41	411
42	31
43	88
46	1
47	0
48	0
49	1
50	2
51	11
52	6
53	67
54	75
55	999
56	100
57	101
58	5
60	1
61	2
62	0
63	3
64	1
65	18
66	30
67	335
68	81
69	302
70	53
71	27
72	3
73	0
74	0
75	1
76	0
77	24
78	9
79	52
80	27
81	476
82	349
83	387
84	25
85	0
89	0
90	1
91	16
92	2
93	12
94	6
95	151
96	272
97	443
98	68
99	5
100	0
103	2
104	4
105	4
106	1
107	6
108	8
109	173
110	151
111	51
112	6
113	2
115	1
116	0
117	3
118	4
119	0
121	1
122	6
123	39
124	248
125	33
126	1
127	0
128	0
129	0
130	0
131	0
132	0
136	1
137	9
138	3
139	2
145	4
146	0
150	1
151	27
152	10
159	0
163	7
164	6
165	155
166	19
167	0
168	1
169	1
174	2
178	0
179	1
180	25
181	3
182	0
