Mass Spectrum: Bicyclo[2.2.1]heptane, 2-hexyl-
Formula: C13H24
CAS: 61141-60-4
Molecular weight: 180
m/z	intensity
27	64
28	136
29	86
31	20
39	79
40	16
41	293
42	67
43	167
44	161
45	6
50	9
51	20
52	17
53	51
54	83
55	249
56	164
57	61
65	20
66	100
67	542
68	197
69	127
70	27
71	19
72	5
73	4
74	0
75	0
76	5
77	35
78	63
79	58
80	30
81	250
82	265
83	98
84	26
85	6
91	17
92	3
93	18
94	25
95	999
96	225
97	43
98	7
104	3
107	0
110	139
112	9
122	3
123	36
124	27
125	1
126	1
137	11
138	11
139	1
151	26
152	48
153	4
165	3
180	57
181	7
