Mass Spectrum: 2-Propenimidamide, N-2-propenylidene-N'-2-propenyl-
Formula: C9H12N2
CAS: 61141-58-0
Molecular weight: 148
m/z	intensity
39	391
40	120
41	137
52	37
53	26
54	303
56	21
65	53
66	501
67	236
68	37
92	156
93	999
94	108
119	28
120	90
121	25
133	39
145	23
146	15
147	106
148	57
