Mass Spectrum: Cyclohexane, (4-methylpentyl)-
Formula: C12H24
CAS: 61142-20-9
Molecular weight: 168
m/z	intensity
24	0
25	0
26	2
27	65
29	94
30	2
33	0
36	0
38	1
39	59
40	8
41	290
42	36
43	215
45	0
48	0
50	1
51	4
52	2
53	26
54	50
55	719
56	202
57	109
58	5
59	0
60	0
61	0
62	0
63	0
64	0
65	7
66	6
67	189
68	33
69	174
70	42
71	31
72	1
73	0
74	0
75	0
76	1
77	5
78	0
79	9
80	2
81	31
82	673
83	999
84	92
85	14
86	0
90	0
91	11
92	8
93	1
94	0
95	4
96	10
97	61
98	6
99	1
105	0
109	19
110	1
111	15
112	8
113	0
117	0
119	0
124	18
125	20
126	3
127	0
139	0
140	3
141	0
153	3
154	0
162	1
166	0
167	0
168	49
169	6
