Mass Spectrum: Cyclobutane, 1-cyclopropyl-2-ethenyl-, cis-
Formula: C9H14
CAS: 61141-61-5
Molecular weight: 122
m/z	intensity
27	291
28	158
29	52
32	18
38	25
39	466
40	159
41	260
42	83
50	19
51	60
52	30
53	371
54	289
55	69
63	12
65	50
66	168
67	894
68	999
69	43
77	79
78	28
79	317
80	168
81	102
91	25
93	93
94	89
107	27
