Mass Spectrum: 1,3-Heptadiene, 3-ethyl-2-methyl-
Formula: C10H18
CAS: 61142-35-6
Molecular weight: 138
m/z	intensity
26	85
27	262
29	184
30	4
31	59
33	1
34	0
35	0
36	1
37	5
38	10
39	255
40	7
41	489
42	44
43	323
45	6
46	2
47	0
48	0
49	2
50	21
51	52
52	27
53	135
54	33
55	375
56	53
57	140
58	8
59	7
60	3
61	2
62	3
63	14
64	4
65	69
66	25
67	999
68	100
69	100
70	17
71	6
72	1
73	1
74	1
75	1
76	2
77	101
78	20
79	157
80	23
81	596
82	84
83	21
84	9
85	7
86	2
87	1
89	1
90	0
91	68
92	9
93	53
94	25
95	125
96	42
97	6
98	4
99	14
100	1
102	2
103	2
104	1
105	8
106	1
107	34
108	11
109	891
110	75
111	5
112	0
113	1
115	0
116	0
117	0
119	0
121	4
122	1
123	141
124	15
125	1
129	0
134	0
135	0
136	0
137	3
138	302
139	32
140	2
