Mass Spectrum: Phosphine, (1,1-dimethylethyl)[5-methyl-2-(1-methylethyl)cyclohexyl](phenylmethyl)-
Formula: C21H35P
CAS: 61141-92-2
Molecular weight: 318
m/z	intensity
24	1
25	2
26	12
27	72
28	175
29	287
30	8
31	1
32	28
33	0
34	0
35	0
36	1
37	2
38	3
39	76
40	343
41	537
42	29
43	200
44	7
45	22
46	2
47	7
48	2
49	1
50	5
51	20
52	6
53	49
54	15
55	392
56	31
57	999
58	44
59	22
60	4
61	33
62	7
63	12
64	4
65	83
66	10
67	87
68	13
69	215
70	44
71	26
72	4
73	25
74	4
75	9
76	7
77	54
78	83
79	74
80	13
81	171
82	26
83	185
84	16
85	16
86	6
87	17
88	3
89	27
90	9
91	826
92	75
93	29
94	12
95	156
96	20
97	40
98	10
99	14
100	4
101	22
102	7
103	11
104	11
105	16
106	6
107	12
108	4
109	21
110	9
111	10
112	2
113	7
114	3
115	20
116	7
117	11
118	9
119	11
120	8
121	107
122	36
123	283
124	393
125	84
126	5
127	8
128	5
129	8
130	5
131	10
132	5
133	13
134	5
135	15
136	5
137	61
138	453
139	58
140	7
141	4
142	1
143	3
144	2
145	5
146	3
147	4
148	2
149	13
150	8
151	135
152	31
153	4
154	3
155	3
156	2
157	6
158	2
159	2
160	2
161	2
162	4
163	7
164	5
165	11
166	6
167	7
168	1
169	4
170	2
171	65
172	11
173	5
174	2
175	4
177	10
178	17
179	28
180	395
181	270
182	56
183	5
184	1
185	5
186	1
187	2
188	4
189	2
190	2
191	20
192	56
193	46
194	149
195	23
196	4
197	14
198	3
199	2
200	0
201	1
202	1
203	2
204	1
205	28
206	123
207	309
208	49
209	5
210	1
211	1
212	1
213	3
214	2
215	9
219	49
220	23
221	9
222	2
223	1
224	0
225	2
226	1
227	14
228	4
229	2
230	0
231	0
233	5
234	10
235	10
236	58
237	11
238	2
239	1
241	1
242	0
243	0
244	1
245	2
246	1
247	34
248	42
249	317
250	56
251	5
252	1
253	0
254	0
255	0
256	0
259	3
260	3
261	80
262	199
263	58
264	8
265	1
268	0
270	0
273	0
274	0
275	114
276	25
277	2
278	1
279	1
280	0
281	0
282	0
284	2
285	0
288	0
289	2
290	1
291	0
294	1
296	0
301	0
302	0
303	23
304	4
305	0
306	0
307	0
309	0
310	0
312	0
315	0
316	1
317	17
318	467
319	105
320	14
