Mass Spectrum: Cyclohexane, 1-methyl-2,4-bis(1-methylethenyl)-
Formula: C13H22
CAS: 61142-58-3
Molecular weight: 178
m/z	intensity
27	339
28	581
29	348
30	14
31	5
32	51
36	17
37	9
38	19
39	483
40	127
41	999
42	81
43	253
44	49
45	4
46	7
48	19
49	8
50	37
51	83
52	46
53	363
54	76
55	635
56	51
57	63
58	6
59	10
60	3
61	4
62	5
63	23
64	12
65	124
66	68
67	667
68	525
69	351
70	29
71	7
73	7
74	4
75	7
76	6
77	234
78	73
79	486
80	139
81	654
82	191
83	90
84	11
85	4
89	7
90	2
91	234
92	123
93	898
94	317
95	436
96	189
97	41
98	4
99	2
101	3
103	15
104	16
105	93
106	28
107	659
108	349
109	184
110	55
111	4
113	2
114	2
115	14
116	7
117	6
118	2
119	30
120	17
121	396
122	209
123	153
124	20
125	3
126	2
128	6
129	5
130	2
131	9
132	2
133	7
134	12
135	384
136	156
137	28
138	3
147	4
148	2
149	126
150	408
151	41
152	4
160	2
162	2
163	149
164	23
165	4
172	2
177	3
178	56
179	7
