Mass Spectrum: Cyclopentane, 1-butyl-2-pentyl-
Formula: C14H28
CAS: 61142-52-7
Molecular weight: 196
m/z	intensity
26	95
27	214
28	153
29	392
30	8
32	22
33	0
36	1
37	5
38	8
39	128
40	34
41	739
42	171
43	474
44	16
48	1
49	5
50	16
51	12
52	11
53	74
54	135
55	886
56	592
57	584
58	28
59	2
60	0
62	1
63	3
64	1
65	20
66	29
67	244
68	96
69	999
70	426
71	170
72	13
73	1
74	2
75	2
76	1
77	21
78	6
79	35
80	12
81	118
82	185
83	935
84	268
85	75
86	4
88	1
89	0
90	0
91	14
92	4
93	6
94	4
95	66
96	81
97	411
98	137
99	22
100	2
103	0
104	0
105	2
107	2
108	0
109	9
110	38
111	140
112	108
113	17
115	1
116	0
117	2
118	0
119	4
120	2
121	2
123	8
124	133
125	334
126	89
127	9
128	1
134	0
135	1
136	0
137	11
138	89
139	179
140	50
141	6
142	1
148	0
149	5
150	0
151	1
152	6
153	26
154	23
155	2
163	0
165	0
166	2
167	9
168	52
169	6
170	0
179	0
181	0
182	1
189	0
190	0
193	0
194	6
196	275
197	39
198	3
