Mass Spectrum: Cyclohexane, 2,4-diethenyl-1-methyl-
Formula: C11H18
CAS: 61142-71-0
Molecular weight: 150
m/z	intensity
23	0
26	16
27	331
28	29
29	231
30	3
34	0
35	2
37	4
38	12
39	467
40	86
41	694
42	56
43	82
45	0
46	1
47	1
48	0
49	1
50	20
51	70
52	44
53	263
54	375
55	484
56	21
57	9
58	9
59	6
60	2
61	2
62	6
63	19
64	7
65	111
66	136
67	712
68	573
69	91
70	7
71	4
72	0
73	1
74	1
75	8
76	0
77	215
78	138
79	696
80	313
81	525
82	122
83	28
84	3
85	1
87	1
89	11
90	2
91	181
92	98
93	999
94	360
95	166
96	81
97	6
100	0
103	6
104	3
105	35
106	11
107	354
108	142
109	68
110	7
112	0
113	0
114	0
115	9
116	2
117	3
119	7
120	6
121	266
122	407
123	34
128	3
130	1
131	1
132	0
133	5
135	120
136	15
139	0
143	2
144	3
146	1
147	0
149	3
150	28
151	3
