Mass Spectrum: 1-Heptene, 2-methoxy-
Formula: C8H16O
CAS: 61142-46-9
Molecular weight: 128
m/z	intensity
40	140
41	40
42	260
43	480
44	170
45	10
46	40
53	40
54	20
55	240
56	40
57	45
58	11
59	29
67	20
71	60
72	999
73	60
85	450
86	61
109	20
113	5
128	70
129	3
