Mass Spectrum: Cyclohexene, 3,4-diethenyl-1,6-dimethyl-
Formula: C12H18
CAS: 61142-14-1
Molecular weight: 162
m/z	intensity
25	0
26	3
27	90
28	10
29	43
30	1
37	4
38	4
39	119
40	15
41	195
42	9
43	14
44	1
45	0
46	0
47	0
49	0
50	9
51	41
52	18
53	69
54	14
55	58
56	3
58	5
59	1
60	0
61	0
62	2
63	15
64	10
65	62
66	19
67	46
68	4
69	44
70	3
71	4
72	1
73	0
74	1
75	3
76	2
77	189
78	40
79	147
80	61
81	37
82	10
83	1
84	3
85	0
86	0
87	0
88	0
89	7
90	2
91	242
92	57
93	999
94	89
95	13
96	1
97	0
99	1
101	1
102	3
103	16
104	7
105	145
106	34
107	56
108	743
109	63
110	2
111	0
112	0
114	0
115	20
116	8
117	21
118	6
119	78
120	33
121	15
122	1
126	0
127	3
128	9
129	7
130	4
131	9
132	4
133	44
134	12
135	3
136	0
139	0
140	0
141	2
142	1
143	4
144	1
145	11
146	1
147	71
148	9
149	0
152	0
153	0
155	0
156	0
157	0
158	2
159	0
160	3
161	1
162	49
163	6
