Mass Spectrum: Methanamine, 1,1,1-trifluoro-
Formula: CH2F3N
CAS: 61165-75-1
Molecular weight: 85
m/z	intensity
46	999
65	240
66	950
69	620
85	850
