Mass Spectrum: Cyclobuta[1,2:3,4]dicyclooctene, hexadecahydro-, (6a.alpha.,6b.alpha.,12a.alpha.,12b.alpha.)-
Formula: C16H28
CAS: 61177-15-9
Molecular weight: 220
m/z	intensity
27	27
28	15
29	53
39	70
41	286
42	6
43	11
53	51
54	221
55	188
56	14
65	8
66	52
67	498
68	207
69	100
77	24
79	67
80	46
81	465
82	985
83	62
91	10
93	21
95	191
96	21
110	999
111	108
220	5
