Mass Spectrum: Pyridine, 2,5-dimethyl-4-(2,4-dimethylbenzyl)-
Formula: C16H19N
CAS: 61171-07-1
Molecular weight: 225
m/z	intensity
33	29
34	8
35	0
36	2
37	0
39	91
40	123
41	36
42	26
44	30
45	1
50	13
51	36
52	18
53	24
54	4
55	5
56	1
57	4
61	0
63	29
64	10
65	29
66	5
67	3
68	4
69	2
70	3
71	2
74	4
75	8
77	104
78	35
79	26
80	6
81	2
82	10
83	11
84	2
85	0
86	0
87	2
88	2
89	16
91	103
93	19
94	3
95	4
97	25
98	19
99	0
101	3
102	10
103	38
104	38
105	50
106	16
107	2
108	0
109	0
111	5
112	16
113	9
114	3
115	46
117	52
119	999
120	92
125	0
126	2
127	14
128	27
129	12
130	6
131	2
132	1
133	0
134	0
139	7
140	3
141	16
142	9
143	6
144	2
145	0
147	0
149	0
151	6
152	26
153	20
154	9
155	6
156	3
157	1
158	0
163	1
164	2
165	25
166	11
167	11
168	8
169	10
170	2
176	0
177	1
178	6
179	5
180	8
181	7
182	3
183	3
184	1
190	1
191	3
192	5
193	9
194	27
195	38
196	10
197	0
204	1
205	2
206	6
207	11
208	29
209	16
210	94
211	16
221	2
222	6
224	31
225	186
226	30
227	1
