Mass Spectrum: Butyltripropylammonium bromide
Formula: C13H30BrN
CAS: 61175-77-7
Molecular weight: 279
m/z	intensity
14	6
15	30
25	4
26	41
27	372
28	105
29	225
30	384
31	6
36	2
37	11
38	25
39	160
40	34
41	637
42	248
43	882
44	142
45	4
49	1
50	4
51	4
52	4
53	10
54	17
55	47
56	73
57	244
58	71
59	3
65	1
66	1
67	6
68	21
69	7
70	94
71	13
72	305
73	14
79	18
80	41
81	17
82	40
83	3
84	68
85	10
86	440
87	28
91	1
93	8
94	3
95	7
96	3
97	2
98	26
99	4
100	32
101	2
105	1
106	2
107	13
108	2
109	11
110	5
111	1
112	44
113	4
114	999
115	85
116	3
122	57
123	2
124	61
125	2
126	32
127	4
128	770
129	70
130	3
136	7
138	8
139	1
140	9
141	4
142	18
143	21
144	3
153	3
154	2
155	13
156	18
157	79
158	11
159	1
200	1
