Mass Spectrum: Cyclopropane, 1-chloro-1,2,3-trimethyl-
Formula: C6H11Cl
CAS: 61177-20-6
Molecular weight: 118
m/z	intensity
26	99
27	395
28	177
29	142
30	3
31	6
32	10
33	1
35	1
36	19
37	16
38	30
39	320
40	54
41	656
42	46
43	112
44	19
45	6
46	1
47	3
48	1
49	16
50	43
51	69
52	20
53	146
54	46
55	872
56	52
57	4
59	8
60	2
61	11
62	17
63	42
64	6
65	101
66	20
67	498
68	31
69	9
71	1
72	1
73	12
74	4
75	112
76	19
77	53
78	10
79	22
80	4
81	25
82	21
83	999
84	64
85	3
86	1
87	6
89	24
90	10
91	17
92	4
93	12
94	2
95	2
96	1
97	1
98	1
99	1
102	1
103	182
104	9
105	60
106	4
107	2
108	5
109	5
110	1
112	1
114	1
115	1
117	1
118	86
119	6
120	28
121	3
