Mass Spectrum: 3-Decanol, TMS derivative
Formula: C13H30OSi
CAS: 61180-95-8
Molecular weight: 230
m/z	intensity
26	10
27	46
28	187
29	73
30	3
31	6
32	27
33	0
34	0
36	1
37	1
38	1
39	25
40	5
41	110
42	28
43	80
44	37
45	75
46	5
47	41
48	2
49	2
50	1
51	3
52	2
53	8
54	7
55	113
56	38
57	39
58	11
59	42
60	10
61	55
62	3
63	3
64	1
65	3
66	2
67	14
68	5
69	223
70	30
71	14
72	18
73	999
74	92
75	556
76	37
77	24
78	2
79	3
81	6
82	5
83	22
84	9
85	10
86	2
87	5
89	7
90	1
91	19
92	1
93	3
94	2
95	5
96	2
97	13
98	3
99	8
100	3
101	19
102	2
103	113
104	10
105	5
106	1
107	1
109	3
110	2
111	19
112	2
113	4
114	1
115	13
116	4
117	8
118	0
119	1
120	1
121	2
123	1
125	1
127	2
128	1
129	16
130	8
131	925
132	99
133	35
134	2
135	25
136	4
137	1
139	1
140	4
141	1
143	6
144	2
145	13
146	1
147	21
148	4
149	5
151	0
152	1
153	1
156	2
157	3
158	1
159	7
160	0
161	1
162	1
163	1
165	0
166	1
167	4
168	3
169	5
170	1
171	1
172	1
173	7
174	0
175	0
176	1
177	1
178	0
180	0
181	1
182	0
183	0
185	0
187	6
188	1
191	2
192	1
193	2
194	1
195	1
196	0
197	7
198	2
199	2
201	284
202	43
203	13
215	51
216	9
217	3
230	4
