Mass Spectrum: 5,8-Methano-1H-[1,2,4]triazolo[1,2-a]pyridazine-1,3(2H)-dione, 5,8-dihydro-2-methyl-
Formula: C8H9N3O2
CAS: 61195-22-0
Molecular weight: 179
m/z	intensity
38	15
39	109
40	87
41	20
42	10
50	6
51	20
52	31
53	27
54	9
56	42
57	23
58	12
63	9
64	8
65	80
66	999
67	72
68	5
69	5
70	8
78	6
79	43
80	33
94	18
95	8
121	32
122	52
152	11
179	195
180	19
