Mass Spectrum: Loprazolam
Formula: C23H21ClN6O3
CAS: 61197-73-7
Molecular weight: 464
m/z	intensity
42	311
43	206
56	68
70	999
71	91
85	90
98	139
112	108
125	95
138	99
151	14
163	11
188	22
190	40
216	25
217	34
232	40
233	21
252	41
254	28
298	34
299	45
315	9
327	30
351	13
353	18
366	19
380	26
381	49
394	107
396	55
434	8
449	41
464	253
466	141
