Mass Spectrum: Benzoic acid, 2-(hydroxymethyl)-
Formula: C8H8O3
CAS: 612-20-4
Molecular weight: 152
m/z	intensity
17	1
18	5
26	3
27	9
28	2
29	6
32	1
36	1
37	16
38	28
39	26
40	2
41	1
43	9
44	5
45	6
48	1
49	9
50	82
51	104
52	27
53	9
59	3
60	2
61	11
62	19
63	33
64	8
65	7
66	24
73	8
74	34
75	28
76	87
77	384
78	35
79	4
84	1
85	4
86	5
87	3
89	21
90	21
91	26
92	3
103	3
104	26
105	999
106	79
107	8
118	26
119	9
120	1
133	139
134	391
135	38
136	3
137	3
151	1
152	1
