Mass Spectrum: 4-Butyl-cyclohexanone
Formula: C10H18O
CAS: 61203-82-5
Molecular weight: 154
m/z	intensity
27	306
29	352
39	212
41	623
42	173
43	326
44	35
53	104
54	115
55	999
56	317
57	717
58	69
67	152
68	153
69	257
70	293
71	58
81	176
82	57
83	552
84	69
95	70
96	104
97	387
98	93
110	163
111	57
125	128
126	186
139	35
154	246
