Mass Spectrum: Cyclohexane, (1-methylbutyl)-
Formula: C11H22
CAS: 61208-94-4
Molecular weight: 154
m/z	intensity
26	3
27	118
28	9
29	157
30	3
31	2
37	0
38	1
39	102
40	16
41	410
42	94
43	285
44	9
45	3
50	1
51	9
52	5
53	51
54	83
55	999
56	69
57	37
58	2
62	0
63	1
65	15
66	8
67	388
68	48
69	396
70	365
71	75
72	4
74	1
76	1
77	13
78	2
79	25
80	4
81	53
82	918
83	807
84	59
85	7
86	2
87	1
91	4
92	1
93	2
95	12
96	1
97	23
98	4
99	2
104	0
105	1
109	4
110	87
111	255
112	22
121	0
122	0
123	0
124	4
125	7
126	2
127	2
132	0
139	6
140	0
151	0
153	1
154	128
155	17
156	1
