Mass Spectrum: Borane, diethyl(1-ethyl-2-methyl-1-butenyl)-, (Z)-
Formula: C11H23B
CAS: 61204-98-6
Molecular weight: 166
m/z	intensity
25	1
27	288
28	157
29	80
30	5
31	6
32	24
33	1
34	1
35	0
36	13
37	43
38	29
39	169
40	271
41	999
42	29
43	17
44	11
45	3
46	1
47	1
48	2
49	4
50	40
51	95
52	60
53	221
54	131
55	527
56	36
57	39
58	4
59	6
60	2
61	4
62	6
63	17
64	23
65	47
66	119
67	449
68	139
69	486
70	30
71	4
72	10
73	2
74	3
75	5
76	5
77	21
78	17
79	45
80	77
81	331
82	27
83	18
84	2
85	4
86	1
87	2
89	5
90	1
91	12
92	6
93	14
94	22
95	143
96	57
97	13
98	17
99	1
101	1
103	2
104	1
105	6
106	5
107	21
108	32
109	113
110	13
111	2
112	1
113	2
114	1
116	1
117	1
118	1
121	4
122	5
123	3
124	7
125	19
126	2
127	1
129	1
135	5
136	98
137	343
138	41
139	3
142	1
149	3
150	1
151	2
152	1
153	3
154	1
155	1
159	0
165	36
166	140
167	16
