Mass Spectrum: 3,4-Nonadien-6-yne, 5-ethyl-3-methyl-
Formula: C12H18
CAS: 61227-88-1
Molecular weight: 162
m/z	intensity
39	500
41	999
51	310
53	340
55	560
63	210
65	300
67	250
69	300
77	550
79	370
81	200
91	860
93	230
95	210
105	860
115	280
117	280
119	520
133	680
147	320
162	370
163	60
