Mass Spectrum: 3-Heptyne, 5-ethyl-5-methyl-
Formula: C10H18
CAS: 61228-10-2
Molecular weight: 138
m/z	intensity
41	210
43	20
53	100
55	250
65	50
67	560
69	90
77	80
79	90
81	240
92	50
94	380
95	50
108	87
109	999
110	80
138	100
