Mass Spectrum: Silane, (3-ethyl-3-methyl-1-pentynyl)trimethyl-
Formula: C11H22Si
CAS: 61228-00-0
Molecular weight: 182
m/z	intensity
69	180
73	810
74	70
83	110
97	999
98	120
108	140
111	280
123	110
153	260
167	510
168	80
182	130
183	20
