Mass Spectrum: Morpholin-4-yl-acetic acid (2-hydroxy-benzylidene)-hydrazide
Formula: C13H17N3O3
CAS: 61220-99-3
Molecular weight: 263
m/z	intensity
33	0
34	1
36	2
37	3
38	11
39	52
40	34
41	68
42	145
43	73
44	48
45	20
46	1
49	0
50	15
51	35
52	23
53	16
54	16
55	17
56	185
57	24
58	8
59	7
60	3
61	1
62	6
63	23
64	14
65	43
66	11
67	3
68	6
69	8
70	61
71	18
72	27
73	4
74	3
75	4
76	8
77	46
78	27
79	7
80	11
81	3
82	2
83	4
84	9
85	9
86	40
87	5
88	1
89	2
90	7
91	19
92	8
93	12
94	2
95	1
96	0
97	1
98	31
99	46
100	999
101	61
102	11
103	2
104	1
105	12
106	4
107	8
108	3
109	1
111	1
112	6
113	3
114	1
115	1
116	0
117	3
118	3
119	13
120	18
121	21
122	35
123	3
124	0
125	0
126	3
127	1
128	0
129	0
130	1
131	1
132	0
133	1
134	2
135	9
136	5
137	0
139	0
140	1
141	14
142	13
143	28
144	2
145	0
146	1
147	15
148	4
149	3
150	2
159	0
160	0
161	0
162	0
163	8
164	1
171	0
175	0
178	16
179	1
190	1
191	0
206	0
208	2
218	0
220	2
261	1
263	53
264	7
265	0
