Mass Spectrum: Silane, (3,3-dimethyl-1-propyne-1,3-diyl)bis[trimethyl-
Formula: C11H24Si2
CAS: 61227-98-3
Molecular weight: 212
m/z	intensity
26	0
27	3
28	2
29	20
30	1
31	14
33	0
39	6
40	0
41	7
42	5
43	111
44	29
45	210
46	15
47	6
49	0
51	1
52	0
53	22
54	4
55	28
56	7
57	12
58	15
59	38
60	3
61	1
62	0
63	3
64	0
65	1
66	5
67	37
68	5
69	45
70	33
71	12
72	13
73	999
74	83
75	33
76	1
77	3
78	1
79	8
80	1
81	13
82	6
83	49
84	5
85	12
86	1
87	0
90	0
91	1
92	1
93	10
94	1
95	13
96	7
97	103
98	11
99	15
100	2
101	2
102	0
103	0
105	1
106	0
107	7
108	3
109	167
110	17
111	11
112	1
113	2
114	0
115	2
117	0
121	2
122	1
123	60
124	924
125	109
126	37
127	5
128	0
129	3
131	0
135	0
137	1
138	0
139	2
140	1
141	8
142	1
143	0
153	1
155	199
156	34
157	13
158	1
167	1
169	4
170	0
181	2
182	0
197	50
198	10
199	4
200	0
212	73
213	17
214	5
215	1
