Mass Spectrum: Cyclohexene, 3,4-diethenyl-, cis-
Formula: C10H14
CAS: 61222-40-0
Molecular weight: 134
m/z	intensity
24	0
25	1
26	22
27	210
28	26
29	30
30	0
32	2
34	0
35	0
36	0
37	5
38	16
39	272
40	29
41	180
42	5
44	2
47	0
48	0
49	3
50	34
51	91
52	60
53	82
54	40
55	13
56	6
58	5
62	5
63	27
64	7
65	84
66	29
67	49
68	4
69	1
70	0
71	0
73	0
74	4
75	8
76	4
77	185
78	96
79	761
80	999
81	67
82	2
83	0
84	0
86	1
87	1
88	0
89	4
90	2
91	179
92	111
93	48
94	3
97	0
98	0
100	0
102	3
103	13
104	6
105	64
106	53
107	7
108	0
113	0
115	9
116	2
117	9
118	1
119	85
120	7
127	1
128	2
129	2
130	0
131	1
132	0
133	8
134	13
135	1
