Mass Spectrum: Cyclobutane, 1-cyclopropyl-2-ethenyl-
Formula: C9H14
CAS: 61233-73-6
Molecular weight: 122
m/z	intensity
27	169
28	120
29	30
38	10
39	368
40	115
41	188
42	58
50	17
51	52
52	21
53	339
54	251
55	56
63	4
65	46
66	99
67	837
68	999
69	39
77	73
78	19
79	317
80	138
81	104
91	30
93	91
94	78
96	2
107	32
