Mass Spectrum: 1H-Pyrrole-2-carboxamide, N-(3-amino-3-oxopropyl)-1-methyl-5-[[(5-oxo-2-pyrrolidinyl)carbonyl]amino]-
Formula: C14H19N5O4
CAS: 61233-57-6
Molecular weight: 321
m/z	intensity
38	70
41	230
42	60
43	100
44	320
45	120
54	70
55	120
56	170
60	120
64	60
69	90
74	50
79	60
82	90
83	60
84	999
85	100
87	170
95	120
99	90
105	70
108	60
112	130
114	300
123	90
126	60
139	340
153	30
165	50
192	40
210	140
234	30
250	360
251	80
303	30
321	60
