Mass Spectrum: Octanenitrile, 6-amino-
Formula: C8H16N2
CAS: 61233-50-9
Molecular weight: 140
m/z	intensity
15	40
18	18
26	68
27	256
28	451
29	210
30	625
31	10
39	142
40	33
41	452
42	322
43	232
44	53
45	92
51	20
52	46
53	68
54	185
55	131
56	303
57	41
58	170
67	13
68	62
69	40
70	610
71	179
72	11
81	13
82	340
83	58
84	32
85	10
97	13
98	33
100	40
109	22
111	999
112	240
113	12
125	10
139	22
140	16
