Mass Spectrum: Nickel, (2-methyl-2-propenyl)[(1,2,3-.eta.)-2-methyl-2-propenyl](trimethylphosphine)-
Formula: C11H23NiP
CAS: 61233-22-5
Molecular weight: 244
m/z	intensity
25	5
26	145
27	253
28	103
29	139
30	4
31	10
32	11
33	13
34	7
35	5
36	3
37	15
38	24
39	196
40	79
41	231
42	22
43	26
44	91
45	341
46	64
47	118
48	14
49	36
50	26
51	30
52	12
53	53
54	31
55	107
56	54
57	247
58	582
59	709
60	200
61	999
63	6
64	8
65	10
66	9
67	19
68	19
69	11
70	7
71	8
72	13
73	48
74	8
75	190
76	669
77	152
78	15
79	2
80	2
81	6
82	4
83	17
84	113
85	112
86	83
87	47
88	29
89	10
90	3
91	7
92	51
93	11
94	28
95	28
96	12
97	209
98	330
99	137
100	179
101	28
102	47
103	9
104	10
105	9
106	3
107	1
108	6
109	12
110	30
111	65
112	415
113	339
114	491
115	142
116	132
117	29
118	22
119	5
120	4
121	2
123	10
124	11
125	8
126	90
127	10
128	109
129	9
130	34
131	2
132	6
134	2
135	2
136	14
137	8
138	10
139	6
140	17
141	2
142	9
143	2
144	3
146	0
148	0
149	57
150	25
151	8
152	21
153	9
154	7
155	3
156	0
158	0
160	2
162	1
163	7
164	19
165	4
166	10
167	5
168	809
169	67
170	268
171	42
172	39
173	3
174	8
175	0
178	1
185	0
197	0
199	1
200	1
201	1
202	2
205	2
207	2
