Mass Spectrum: 3-Hexyne, 1,6-dibromo-
Formula: C6H8Br2
CAS: 61233-70-3
Molecular weight: 238
m/z	intensity
37	81
38	162
39	762
40	102
41	326
42	16
43	24
49	40
50	249
51	405
52	185
53	385
54	27
55	30
61	16
62	36
63	92
64	16
65	433
66	284
67	83
74	27
75	20
76	9
77	380
78	166
79	999
80	471
81	104
82	46
83	12
91	19
92	11
93	137
94	4
95	126
105	17
106	14
107	83
108	9
109	62
117	10
119	214
120	3
121	194
131	13
132	3
133	90
134	7
135	73
145	74
146	7
147	70
148	4
158	34
159	185
160	46
161	178
162	8
199	3
223	14
225	33
227	13
237	74
238	172
239	159
240	331
241	90
242	161
