Mass Spectrum: 1,6,9-Tetradecatriene
Formula: C14H24
CAS: 61233-71-4
Molecular weight: 192
m/z	intensity
38	20
39	591
40	84
41	999
42	87
43	170
50	16
51	77
52	49
53	271
54	362
55	565
56	50
57	53
63	15
64	1
65	97
66	82
67	738
68	282
69	183
70	8
77	191
78	94
79	531
80	301
81	565
82	146
83	69
84	3
91	139
92	36
93	432
94	342
95	369
96	100
97	16
105	24
106	10
107	205
108	154
109	93
110	18
119	7
120	2
121	106
122	28
123	23
133	6
134	10
135	612
136	122
137	10
149	55
150	35
151	1
163	20
164	43
177	2
192	2
