Mass Spectrum: l-O-Methylthreonyl-l-leucine
Formula: C11H22N2O4
CAS: 61242-93-1
Molecular weight: 246
m/z	intensity
41	197
42	70
43	263
44	170
45	63
46	9
47	4
48	0
49	16
50	2
51	9
52	5
53	18
54	27
55	53
56	364
57	132
59	509
60	14
61	3
62	0
63	1
65	1
66	1
67	5
68	10
69	63
70	35
71	71
72	23
73	43
74	20
75	3
76	1
77	0
78	1
79	1
80	2
81	3
82	6
83	11
84	20
85	43
86	324
88	999
89	35
90	1
91	0
94	0
95	1
96	3
97	4
98	8
99	20
100	4
101	2
102	5
108	1
110	2
111	5
112	3
113	25
114	16
116	13
118	3
124	0
125	3
126	2
127	2
128	0
129	0
130	9
132	96
133	5
138	0
140	1
141	20
142	57
143	5
144	1
146	0
151	0
153	2
154	10
155	2
156	0
157	0
158	3
159	2
169	3
170	43
171	4
172	3
173	1
179	0
185	17
186	1
188	180
189	15
190	2
197	0
199	1
201	4
202	1
214	4
215	1
229	0
231	1
246	8
247	0
