Mass Spectrum: Selenourea, phenyl-
Formula: C7H8N2Se
CAS: 6124-02-3
Molecular weight: 200
m/z	intensity
39	100
43	110
50	60
51	230
52	50
63	50
64	50
65	160
66	230
77	510
78	120
91	160
92	140
93	440
104	50
108	50
118	190
119	999
120	140
156	40
158	80
196	120
197	120
198	290
199	70
200	590
201	60
202	110
