Mass Spectrum: Aziridine, 1-(1,1-dimethylethyl)-2,3-dimethyl-, trans-
Formula: C8H17N
CAS: 6125-02-6
Molecular weight: 127
m/z	intensity
2	2
12	0
13	1
14	9
15	125
16	2
17	0
18	11
19	0
25	1
26	36
27	184
28	178
29	206
30	21
31	27
32	0
36	0
37	2
38	7
39	101
40	18
41	204
42	225
43	50
44	22
45	8
46	0
47	0
48	0
49	0
50	2
51	4
52	5
53	14
54	25
55	149
56	183
57	117
58	48
59	11
60	0
63	0
64	0
65	0
66	1
67	4
68	22
69	11
70	999
71	145
72	13
73	0
74	5
75	0
79	0
80	1
81	1
82	13
83	3
84	6
85	1
93	0
94	0
95	4
96	2
97	3
98	1
110	0
112	79
113	6
114	0
127	23
128	2
129	0
