Mass Spectrum: 4-Hexen-1-ol
Formula: C6H12O
CAS: 6126-50-7
Molecular weight: 100
m/z	intensity
26	35
27	311
28	72
29	240
30	13
31	218
32	2
33	0
36	0
37	10
38	28
39	344
40	60
41	746
42	146
43	78
44	145
45	66
46	2
47	0
49	2
50	20
51	32
52	15
53	121
54	224
55	358
56	117
57	168
58	22
59	3
60	0
61	1
62	4
63	7
64	1
65	29
66	16
67	999
68	77
69	93
70	22
71	28
72	36
73	2
74	0
75	0
77	6
78	1
79	21
80	5
81	89
82	377
83	27
84	2
85	1
91	0
93	0
94	0
95	1
96	1
97	0
98	0
99	0
100	42
101	2
