Mass Spectrum: 2-Acetonylcyclohexanone
Formula: C9H14O2
CAS: 6126-53-0
Molecular weight: 154
m/z	intensity
26	13
27	114
28	33
29	67
31	4
38	8
39	130
40	27
41	240
42	72
43	999
44	28
45	11
49	12
50	9
51	17
52	10
53	44
54	27
55	438
56	30
57	12
58	93
59	15
63	5
65	12
66	11
67	86
68	84
69	122
70	43
71	52
72	7
77	25
78	6
79	69
80	12
81	30
82	16
83	145
84	167
85	15
86	5
91	17
92	4
93	63
94	39
95	22
96	50
97	510
98	62
99	5
103	5
107	6
108	58
109	11
110	10
111	386
112	96
113	12
121	51
122	5
126	7
135	8
136	38
137	5
139	41
140	5
154	342
155	36
156	8
