Mass Spectrum: Cyclobuta[1,2:3,4]dicyclooctene, 1,2,5,6,6a,6b,7,8,11,12,12a,12b-dodecahydro-, (6a.alpha.,6b.alpha.,12a.alpha.,12b.beta.)-
Formula: C16H24
CAS: 61277-43-8
Molecular weight: 216
m/z	intensity
27	155
28	677
29	99
39	358
40	49
41	554
42	37
43	34
50	20
51	62
52	44
53	216
54	573
55	194
63	18
65	138
66	212
67	999
68	86
69	43
77	266
78	150
79	934
80	892
81	328
82	33
83	17
91	474
92	188
93	609
94	214
95	141
96	15
103	23
104	34
105	231
106	195
107	296
108	227
109	76
115	21
116	12
117	92
118	35
119	222
120	140
121	127
122	36
123	21
131	103
132	47
133	180
134	215
135	110
136	26
145	77
146	56
147	157
148	76
149	39
159	93
160	54
161	54
162	34
173	200
174	78
175	63
176	10
187	127
188	111
189	16
201	22
202	4
215	7
216	40
217	8
