Mass Spectrum: 3-Acetoxy-2(1H)-pyridone
Formula: C7H7NO3
CAS: 61296-14-8
Molecular weight: 153
m/z	intensity
14	12
15	34
26	30
27	36
29	17
37	14
38	36
39	65
40	11
41	13
42	37
43	373
44	12
45	5
50	6
51	14
52	26
53	38
54	85
55	275
56	18
60	5
64	4
65	13
66	10
67	4
81	6
82	63
83	154
84	9
92	1
93	26
94	6
109	5
110	8
111	999
112	63
113	6
119	4
137	1
153	128
154	12
