Mass Spectrum: 2,2'-Dimethoxyazobenzene
Formula: C14H14N2O2
CAS: 613-55-8
Molecular weight: 242
m/z	intensity
15	2
26	2
27	14
28	12
29	3
30	1
31	1
32	1
37	2
38	9
39	14
40	1
41	2
43	1
50	15
51	97
52	22
53	9
54	2
55	1
61	1
62	5
63	42
64	97
65	31
66	6
67	2
74	2
75	5
76	16
77	999
78	119
79	398
80	36
81	2
89	1
90	1
91	12
92	331
93	46
94	19
95	5
102	2
103	1
104	4
105	6
106	29
107	47
108	107
109	16
110	1
111	1
113	1
115	6
116	1
118	3
119	3
120	194
121	70
122	20
123	195
124	16
125	1
126	1
127	3
128	9
129	1
131	1
134	24
135	906
136	156
137	11
138	1
139	6
140	3
141	4
142	1
149	6
151	2
152	4
153	2
155	3
156	4
157	1
167	1
168	8
169	4
170	2
171	2
181	2
182	2
183	2
184	8
185	2
195	2
196	1
197	1
198	3
199	3
210	1
211	1
212	2
213	1
214	1
225	9
226	2
227	46
228	7
229	1
241	5
242	642
243	106
244	13
245	1
