Mass Spectrum: 2-Tetrazene, 1,1,4,4-tetramethyl-
Formula: C4H12N4
CAS: 6130-87-6
Molecular weight: 116
m/z	intensity
28	195
29	20
30	33
31	7
41	22
42	270
43	570
44	405
45	36
46	12
58	30
59	150
71	33
72	530
73	20
116	999
117	61
