Mass Spectrum: Piperidine, 2,2,6,6-tetramethyl-1-nitroso-
Formula: C9H18N2O
CAS: 6130-93-4
Molecular weight: 170
m/z	intensity
30	199
38	24
39	456
40	93
41	999
42	624
43	193
44	68
51	37
52	24
53	124
54	62
55	718
56	687
57	149
58	268
59	24
65	24
66	18
67	112
68	118
69	999
70	287
71	37
72	149
81	249
82	168
83	156
84	212
85	24
87	43
95	31
96	43
97	312
98	187
99	12
108	18
109	49
110	62
111	24
112	24
123	56
124	49
125	99
126	31
127	31
128	31
140	431
141	37
142	31
153	12
170	199
171	24
