Mass Spectrum: (Z)-Deca-8-en-4,6-diyn-1-yl acetate
Formula: C12H14O2
CAS: 6131-31-3
Molecular weight: 190
m/z	intensity
39	39
40	9
42	19
43	698
44	18
51	97
52	37
53	37
54	7
61	19
62	61
63	180
64	33
67	16
69	32
74	63
75	101
77	304
78	166
79	67
80	14
82	10
86	35
87	49
88	19
89	121
90	70
91	267
92	28
98	30
100	5
101	24
102	183
103	148
106	53
107	22
108	26
110	6
113	16
114	16
115	999
116	137
117	77
118	16
119	42
120	45
126	14
127	317
128	835
129	481
130	724
131	78
145	13
146	11
147	580
148	77
159	6
161	11
162	7
175	71
189	11
190	175
191	23
