Mass Spectrum: Benzenepropanoic acid, .alpha.-butyl-.beta.-oxo-, ethyl ester
Formula: C15H20O3
CAS: 6134-71-0
Molecular weight: 248
m/z	intensity
41	30
44	30
45	40
51	60
77	240
78	30
105	999
106	90
120	70
145	30
146	60
192	170
193	30
201	30
202	70
248	10
