Mass Spectrum: Valeric acid, 2-benzoyl-2-hydroxy-4-methyl-, ethyl ester, benzoate
Formula: C22H24O5
CAS: 6134-74-3
Molecular weight: 368
m/z	intensity
42	20
51	40
57	20
77	250
78	20
105	999
106	90
117	20
218	40
368	40
