Mass Spectrum: Butanoic acid, 2,2-dichloro-3-oxo-, ethyl ester
Formula: C6H8Cl2O3
CAS: 6134-66-3
Molecular weight: 198
m/z	intensity
42	40
43	999
44	70
45	40
62	20
73	20
76	30
94	30
110	50
112	30
114	10
122	40
124	20
126	40
128	210
130	140
132	20
155	20
156	180
158	100
160	20
