Mass Spectrum: Propanedioic acid, (phenylhydrazono)-, diethyl ester
Formula: C13H16N2O4
CAS: 6134-59-4
Molecular weight: 264
m/z	intensity
43	170
44	120
65	780
77	330
91	999
92	540
93	130
118	190
190	260
191	70
218	40
219	20
264	60
