Mass Spectrum: Urea, 1-butyl-3-methyl-
Formula: C6H14N2O
CAS: 6135-36-0
Molecular weight: 130
m/z	intensity
26	10
27	90
28	10
29	105
30	999
31	146
37	2
38	5
39	45
40	11
41	137
42	42
43	123
44	191
45	11
50	2
51	3
52	2
53	5
54	8
55	35
56	106
57	116
58	202
59	12
60	3
68	2
69	5
70	19
71	11
72	35
73	15
74	34
75	17
82	3
83	2
84	3
85	3
86	3
87	157
88	112
89	6
98	26
99	7
100	49
101	73
102	9
105	2
115	21
116	2
130	253
131	21
132	2
