Mass Spectrum: 1,3-Dioxolane, 2-(1,1-dimethylethyl)-2-methyl-
Formula: C8H16O2
CAS: 6135-54-2
Molecular weight: 144
m/z	intensity
26	10
27	30
29	40
39	30
40	10
41	80
42	10
43	330
44	20
45	30
51	10
53	10
55	20
56	20
57	110
58	10
67	20
69	30
73	40
83	18
84	10
85	20
87	999
88	50
89	10
99	30
100	20
101	10
129	150
130	20
