Mass Spectrum: Carbamic acid, ethyl-, methyl ester
Formula: C4H9NO2
CAS: 6135-31-5
Molecular weight: 103
m/z	intensity
13	1
14	6
15	152
16	4
17	5
18	65
25	1
26	16
27	104
28	177
29	323
30	65
31	57
32	9
33	18
38	2
39	6
40	17
41	27
42	99
43	67
44	872
45	71
46	15
47	1
54	1
55	2
56	62
57	8
58	64
59	333
60	9
61	1
70	11
71	18
72	215
73	9
74	1
75	5
76	3
86	1
87	1
88	999
89	41
90	6
101	2
102	64
103	323
104	17
105	2
