Mass Spectrum: Methanone, (4-iodophenyl)phenyl-
Formula: C13H9IO
CAS: 6136-66-9
Molecular weight: 308
m/z	intensity
41	2
43	2
45	3
47	4
48	2
49	37
50	410
51	426
52	24
53	15
55	2
57	1
61	7
62	22
63	37
64	5
65	12
66	1
69	5
73	15
74	119
75	125
76	583
77	798
78	51
79	2
81	0
82	1
84	12
85	4
86	17
87	11
88	4
89	4
90	3
91	0
92	2
93	2
96	0
97	7
98	8
99	6
100	2
101	5
102	6
103	4
104	94
105	999
106	73
107	5
109	13
110	3
111	3
113	3
114	0
115	2
121	1
122	2
124	0
125	5
126	11
127	22
128	2
139	2
140	48
150	11
151	25
152	73
153	32
154	10
163	2
173	0
180	6
181	57
182	7
184	0
202	7
203	76
204	4
231	199
232	13
280	3
308	297
309	40
310	4
