Mass Spectrum: 2-[3,4-Dichlorophenyl-4-[[[1-methyl-2-piperidyl]methyl]amino]-6-trichlomethyl-S-triazine
Formula: C17H18Cl5N5
CAS: 61362-15-0
Molecular weight: 467
m/z	intensity
41	25
42	75
43	22
44	26
45	24
46	1
47	1
49	4
50	1
51	3
52	1
53	5
54	8
55	54
56	6
57	9
58	2
59	1
60	5
61	1
62	0
67	7
68	11
69	9
70	91
71	6
73	5
74	1
75	2
76	0
77	1
78	2
79	2
80	3
81	6
82	8
83	4
84	7
85	2
86	2
87	1
88	1
89	0
94	3
95	2
96	18
97	12
98	999
99	63
100	3
101	0
102	0
106	1
107	0
108	8
109	5
110	9
111	7
112	3
113	0
114	1
115	2
117	2
119	0
121	1
122	0
123	1
124	1
125	1
127	1
134	4
135	1
136	3
137	0
138	1
145	2
147	1
149	1
150	0
160	1
162	1
171	4
172	9
173	2
174	5
175	0
176	1
197	2
199	1
319	3
321	1
323	1
336	0
358	1
429	1
431	2
433	1
435	0
