Mass Spectrum: 3-Hexanone, 4-ethyl-
Formula: C8H16O
CAS: 6137-12-8
Molecular weight: 128
m/z	intensity
13	2
14	14
15	55
16	2
17	1
18	5
19	0
24	0
25	2
26	56
27	503
28	105
29	776
30	18
31	9
32	0
37	5
38	15
39	183
40	27
41	250
42	72
43	999
44	35
45	3
49	1
50	7
51	15
52	5
53	31
54	8
55	210
56	54
57	886
58	31
59	9
60	0
61	0
62	1
63	3
64	0
65	4
66	2
67	6
68	3
69	13
70	75
71	894
72	51
73	1
77	2
78	1
79	3
81	7
82	1
83	5
84	1
85	26
86	5
87	0
91	0
95	1
97	1
98	2
99	125
100	88
101	8
113	4
114	1
128	91
129	10
130	2
