Mass Spectrum: 4-Nonanone, 8-methyl-
Formula: C10H20O
CAS: 6137-29-7
Molecular weight: 156
m/z	intensity
41	272
42	40
43	999
44	30
55	60
56	10
57	70
58	636
59	10
69	232
70	40
71	828
72	50
82	10
85	20
86	414
87	60
95	747
96	60
99	101
113	161
114	10
138	40
156	111
