Mass Spectrum: Propanedioic acid, (3,5-dioxo-1,2-diphenyl-4-pyrazolidinyl)-, diethyl ester
Formula: C22H22N2O6
CAS: 6139-70-4
Molecular weight: 410
m/z	intensity
41	120
43	100
64	100
77	999
91	80
93	170
99	130
105	210
144	100
145	80
154	200
172	80
182	100
183	210
235	130
263	100
291	140
337	760
338	170
364	50
365	60
410	480
