Mass Spectrum: 3,5-Pyrazolidinedione, 4-[(dimethylamino)methylene]-1,2-diphenyl-
Formula: C18H17N3O2
CAS: 6139-74-8
Molecular weight: 307
m/z	intensity
41	150
42	840
43	320
51	150
53	60
68	130
69	150
77	999
83	120
91	60
96	200
97	140
105	250
106	140
110	190
185	80
215	850
307	750
