Mass Spectrum: Benzenemethanol, .alpha.-propyl-
Formula: C10H14O
CAS: 614-14-2
Molecular weight: 150
m/z	intensity
26	0
27	58
29	11
31	1
37	0
38	9
39	63
41	56
42	3
43	52
50	26
51	91
52	14
53	15
54	7
55	24
57	12
62	14
63	16
64	9
65	14
67	5
72	0
74	17
75	5
76	1
77	244
78	54
79	467
80	29
89	14
91	42
92	14
102	0
103	2
105	79
106	27
107	999
108	53
115	25
116	3
117	59
118	13
119	0
131	0
132	28
133	5
134	1
150	66
