Mass Spectrum: .alpha.-Nitroacetophenone
Formula: C8H7NO3
CAS: 614-21-1
Molecular weight: 165
m/z	intensity
17	11
18	37
26	13
27	63
28	15
29	6
30	38
31	2
32	1
36	7
37	13
38	28
39	49
40	1
41	9
42	13
43	10
44	9
46	11
49	9
50	103
51	232
52	21
53	6
54	6
61	10
62	19
63	37
64	11
65	99
66	8
73	10
74	49
75	34
76	49
77	641
78	47
79	5
89	22
90	8
91	111
92	11
93	9
94	41
102	5
103	16
104	5
105	999
106	74
107	13
120	8
121	19
122	8
131	117
132	12
133	2
149	12
165	90
166	7
