Mass Spectrum: dl-3-Amino-3-phenylpropionic acid
Formula: C9H11NO2
CAS: 614-19-7
Molecular weight: 165
m/z	intensity
12	1
13	2
14	9
15	46
16	4
17	60
18	23
25	1
26	3
27	17
28	37
29	7
30	5
31	4
35	2
36	3
37	4
38	8
39	29
40	5
41	16
42	40
43	36
44	16
45	18
46	7
47	6
48	4
49	10
50	128
51	82
52	45
53	15
54	4
55	3
56	3
57	4
58	7
59	11
60	37
61	4
62	8
63	15
64	4
65	13
66	5
67	3
68	2
69	5
70	28
71	3
73	3
74	13
75	10
76	16
77	156
78	59
79	223
80	18
81	3
82	1
83	2
85	2
86	2
87	5
88	20
89	7
90	3
91	28
92	7
93	4
94	2
95	1
96	1
97	2
98	1
99	1
100	1
101	2
102	14
103	59
104	199
105	70
106	999
107	88
108	5
109	1
111	1
115	1
116	1
117	5
118	9
119	36
120	12
121	1
122	3
126	1
128	2
129	5
130	4
131	8
132	1
135	1
137	1
145	1
146	6
147	29
148	26
149	8
150	1
160	2
161	1
162	1
163	1
164	31
165	129
166	14
167	2
