Mass Spectrum: Acetamide, N-(2-hydroxyphenyl)-
Formula: C8H9NO2
CAS: 614-80-2
Molecular weight: 151
m/z	intensity
26	9
27	25
29	5
36	4
37	4
38	11
39	27
40	6
41	10
42	12
43	188
44	6
50	14
51	32
52	51
53	59
54	15
55	5
61	3
62	7
63	26
64	28
65	15
66	6
76	4
77	6
78	14
79	15
80	179
81	45
82	7
90	3
91	9
92	11
93	4
104	6
105	8
107	3
108	65
109	999
110	117
111	8
133	41
134	5
135	3
151	213
152	30
153	3
