Mass Spectrum: Urea, (2-methylphenyl)-
Formula: C8H10N2O
CAS: 614-77-7
Molecular weight: 150
m/z	intensity
15	1
16	4
17	2
18	1
26	5
27	24
28	22
29	4
30	15
37	7
38	14
39	51
40	8
41	11
42	8
43	17
44	61
45	1
49	3
50	32
51	58
52	43
53	31
54	12
55	2
61	5
62	9
63	26
64	13
65	35
66	12
67	7
68	1
73	2
74	8
75	9
76	10
77	161
78	68
79	93
80	36
81	6
85	1
86	2
87	1
88	1
89	40
90	53
91	55
92	8
93	3
94	1
102	3
103	3
104	52
105	24
106	999
107	977
108	79
109	3
117	1
119	2
120	1
121	1
131	3
132	20
133	41
134	7
135	4
149	4
150	567
151	56
152	4
