Mass Spectrum: 1-Benzoyl-2-thiourea
Formula: C8H8N2OS
CAS: 614-23-3
Molecular weight: 180
m/z	intensity
16	2
17	3
18	7
26	3
27	16
28	18
32	9
33	5
34	2
36	2
37	7
38	12
39	24
40	2
41	5
42	9
43	73
44	9
45	2
46	3
47	6
48	7
49	8
50	97
51	254
52	22
53	5
55	3
57	4
58	4
59	18
60	37
61	4
62	5
63	8
64	3
65	10
66	5
69	6
71	2
73	7
74	34
75	27
76	42
77	763
78	63
79	7
80	2
81	10
83	2
85	2
86	3
90	10
92	2
93	4
102	3
103	6
104	21
105	999
106	80
107	8
108	3
109	16
110	113
111	9
112	5
120	2
121	7
122	2
134	4
135	5
136	3
137	2
138	9
139	3
141	2
147	5
149	3
151	2
152	12
153	5
179	4
180	543
181	59
182	30
183	2
