Mass Spectrum: Benzamide, N-(aminocarbonyl)-
Formula: C8H8N2O2
CAS: 614-22-2
Molecular weight: 164
m/z	intensity
12	1
14	1
15	5
16	9
17	9
18	2
26	6
27	17
28	7
29	14
30	2
36	1
37	12
38	19
39	30
40	3
41	3
42	21
43	99
44	86
45	2
46	6
48	1
49	9
50	97
51	215
52	30
53	4
54	1
55	1
56	1
57	2
60	1
61	4
62	5
63	10
64	7
65	11
66	5
67	1
69	1
70	5
71	1
73	8
74	32
75	26
76	65
77	639
78	71
79	4
81	1
83	1
85	1
87	2
88	1
90	1
91	2
92	5
93	17
94	10
95	1
97	1
99	1
102	3
103	96
104	37
105	999
106	77
107	5
111	1
120	18
121	198
122	20
123	1
135	1
136	84
137	8
139	1
146	1
147	39
148	8
149	1
162	1
163	25
164	347
165	35
166	4
