Mass Spectrum: 1,3-Dimethyl-7-oxo-1,7-dihydro-[1,2,4]triazolo(4,3-b)[1,2,4]triazine
Formula: C6H7N5O
CAS: 61402-36-6
Molecular weight: 165
m/z	intensity
40	48
41	69
42	441
43	91
53	80
54	171
55	49
69	318
70	999
71	60
83	39
138	840
139	40
165	280
