Mass Spectrum: Cyclobutanone, 2,2-dipropyl-
Formula: C10H18O
CAS: 61406-27-7
Molecular weight: 154
m/z	intensity
39	50
41	260
43	70
55	420
56	510
66	70
69	310
70	150
79	90
83	70
84	450
85	50
97	250
101	999
103	580
105	120
112	60
117	60
126	120
136	130
154	30
