Mass Spectrum: 1,6-Dimethyl-7-oxo-1,7-dihydro-[1,2,4]-triazolo(4,3-b)-[1,2,4]-triazine
Formula: C6H7N5O
CAS: 61402-35-5
Molecular weight: 165
m/z	intensity
40	78
41	60
42	39
43	80
53	191
54	177
55	68
56	999
57	50
68	19
69	30
83	49
124	895
125	49
165	89
