Mass Spectrum: 1,3,6-Trimethyl-7-oxo-1,7-dihydro-[1,2,4]triazolo(4,3-b)[1,2,4]=triazine
Formula: C7H9N5O
CAS: 61402-37-7
Molecular weight: 179
m/z	intensity
40	28
41	30
42	347
43	40
53	30
54	40
69	229
70	999
71	60
83	59
138	747
139	39
179	138
