Mass Spectrum: 4,7-Dioxooctanoic acid, methyl ester
Formula: C9H14O4
CAS: 61426-50-4
Molecular weight: 186
m/z	intensity
26	21
27	144
28	146
29	97
30	6
31	18
32	1
33	2
37	1
38	8
39	109
40	25
41	200
42	159
43	999
44	27
45	23
48	2
49	3
50	3
51	5
52	2
53	20
54	8
55	170
56	87
57	25
59	859
60	22
61	2
63	4
65	2
67	7
68	3
69	77
70	19
71	194
72	13
73	12
74	3
77	3
79	5
81	23
82	3
83	11
84	3
85	4
87	26
88	18
95	9
96	1
97	17
98	39
99	767
100	41
101	154
102	11
103	8
109	3
110	1
111	23
112	2
114	81
115	5
123	4
125	76
126	43
127	4
128	5
129	414
130	21
131	2
140	4
141	171
142	13
143	1
157	36
158	6
168	5
169	17
170	1
185	1
