Mass Spectrum: 2H-Azepin-2-one, hexahydro-6-methyl-
Formula: C7H13NO
CAS: 6142-55-8
Molecular weight: 127
m/z	intensity
15	50
17	5
18	20
26	40
27	282
28	180
29	190
30	999
31	40
37	15
38	20
39	280
40	20
41	511
42	720
43	360
44	82
45	16
48	20
50	20
51	20
52	20
53	60
54	88
55	600
56	430
57	70
58	40
59	30
60	10
63	10
65	20
66	11
67	40
68	33
69	590
70	390
71	50
72	30
73	80
74	10
77	10
78	10
79	20
80	230
81	70
82	30
83	190
84	310
85	40
86	30
87	10
91	11
92	11
93	10
94	10
95	20
96	20
97	80
98	810
99	180
100	20
109	10
110	30
111	10
112	30
113	10
125	11
126	26
127	610
128	70
