Mass Spectrum: 2,3-Epoxyhexanoic acid, ethyl ester
Formula: C8H14O3
CAS: 61454-93-1
Molecular weight: 158
m/z	intensity
27	423
29	919
39	197
41	589
42	67
43	285
46	13
52	36
55	999
56	214
57	316
59	40
67	98
69	40
71	247
73	520
76	26
77	27
83	41
85	458
88	99
89	11
101	250
103	7
112	14
113	36
115	30
128	6
130	142
158	20
