Mass Spectrum: 4-Hydroxy-2-hexenoic acid, ethyl ester
Formula: C8H14O3
CAS: 61454-95-3
Molecular weight: 158
m/z	intensity
27	397
29	583
31	183
39	71
41	112
43	276
45	114
55	575
56	174
57	659
58	23
67	48
73	909
74	15
83	763
84	108
85	128
96	44
99	139
101	999
102	22
112	149
113	323
114	22
129	905
130	33
