Mass Spectrum: (+-)-trans-1-Isopropenyl-4-methyl-1,4-cyclohexanediol
Formula: C10H18O2
CAS: 61465-23-4
Molecular weight: 170
m/z	intensity
15	7
16	1
17	3
18	12
26	2
27	49
28	14
29	38
30	1
31	13
36	2
37	1
38	4
39	95
40	17
41	243
42	22
43	342
44	10
45	17
48	1
49	1
50	18
51	32
52	12
53	49
54	9
55	175
56	29
57	35
58	51
59	13
60	3
61	5
62	6
63	20
64	10
65	56
66	21
67	101
68	45
69	395
70	52
71	63
72	20
73	285
74	14
75	4
76	3
77	91
78	24
79	221
80	24
81	76
82	32
83	127
84	220
85	38
86	4
87	5
88	1
89	11
90	3
91	209
92	40
93	123
94	47
95	102
96	47
97	151
98	828
99	102
100	12
101	2
102	7
103	28
104	18
105	54
106	15
107	28
108	52
109	272
110	63
111	146
112	13
113	7
114	5
115	46
116	11
117	91
118	18
119	999
120	100
121	14
122	6
123	307
124	172
125	14
126	1
127	3
128	17
129	10
130	1
131	6
132	23
133	15
134	359
135	60
136	8
137	142
138	13
139	1
141	2
142	5
151	3
152	239
153	26
154	2
155	21
156	2
170	9
171	1
