Mass Spectrum: Bi-1-cycloocten-1-yl
Formula: C16H26
CAS: 61468-42-6
Molecular weight: 218
m/z	intensity
26	3
27	115
29	139
30	3
38	2
39	133
41	392
42	24
43	62
50	3
51	16
52	12
53	95
54	57
55	227
56	18
57	10
58	2
63	5
64	2
65	71
66	50
67	999
68	88
69	50
70	6
71	6
75	1
77	137
78	58
79	337
80	183
81	254
82	58
83	23
84	4
85	2
88	2
89	1
90	1
91	215
92	54
93	258
94	87
95	97
96	19
97	10
98	6
99	2
102	1
103	13
104	8
105	81
106	30
107	117
108	562
109	708
110	77
111	11
112	3
115	11
116	9
117	25
118	6
119	71
120	37
121	61
122	78
123	16
124	7
125	4
126	3
127	2
128	3
129	4
130	1
131	11
132	5
133	45
134	37
135	85
136	27
137	7
138	1
139	2
141	2
143	2
144	2
145	7
146	5
147	54
148	52
149	27
150	11
151	3
159	5
160	2
161	46
162	48
163	15
164	6
165	2
173	5
174	2
175	32
176	12
177	5
182	1
187	3
189	19
190	16
191	3
192	2
201	0
202	1
203	6
215	2
216	3
217	2
218	115
219	19
220	2
