Mass Spectrum: l-4-Hydroxylysine
Formula: C6H14N2O3
CAS: 61475-87-4
Molecular weight: 162
m/z	intensity
42	473
43	684
44	456
45	158
46	30
47	6
48	2
49	24
50	12
51	29
52	15
53	41
54	117
55	107
56	469
57	131
58	32
59	8
60	8
61	3
62	2
63	6
64	3
65	21
66	16
67	27
68	60
69	51
70	999
71	120
72	323
73	19
74	181
75	29
76	4
77	35
78	16
79	10
80	24
81	58
82	830
83	358
84	50
85	15
86	28
87	14
88	25
89	13
91	81
92	11
93	4
94	2
95	6
96	6
97	28
98	49
99	99
100	28
101	7
104	2
105	73
106	13
107	7
108	7
109	40
110	12
111	9
112	8
113	2
114	7
115	49
116	21
117	6
118	4
119	4
120	0
121	7
122	7
123	3
124	7
125	6
126	29
127	157
128	23
129	5
133	3
139	2
141	2
143	2
144	9
145	13
146	0
161	3
162	5
163	0
