Mass Spectrum: Norvaline, 2-propyl-, ethyl ester
Formula: C10H21NO2
CAS: 6148-32-9
Molecular weight: 187
m/z	intensity
40	30
41	390
42	410
43	660
44	120
45	20
53	40
54	70
55	210
56	140
57	260
58	130
67	20
68	30
69	40
70	370
71	100
72	170
74	20
82	20
84	30
86	20
98	60
100	20
114	999
115	240
116	110
144	440
145	40
187	30
