Mass Spectrum: 3,5-Pyrazolidinedione, 4-nitro-1,2-diphenyl-
Formula: C15H11N3O4
CAS: 6148-09-0
Molecular weight: 297
m/z	intensity
39	80
43	100
51	230
64	150
65	100
77	999
91	220
93	70
105	230
119	310
145	380
183	230
281	270
297	200
