Mass Spectrum: 3-Furancarboxylic acid, 2,4-dimethyl-, ethyl ester
Formula: C9H12O3
CAS: 6148-33-0
Molecular weight: 168
m/z	intensity
39	160
40	50
41	150
43	400
44	180
53	80
65	110
66	90
67	80
94	150
95	80
96	70
121	80
122	340
123	999
124	110
127	50
139	700
140	140
168	850
169	90
