Mass Spectrum: (4-isothiocyanatobutyl)benzene
Formula: C11H13NS
CAS: 61499-10-3
Molecular weight: 191
m/z	intensity
27	9
29	3
30	9
38	3
39	66
40	7
41	33
44	5
45	8
47	6
48	2
50	19
51	65
52	16
53	14
54	10
58	12
59	45
60	11
62	9
63	43
64	21
65	227
66	11
72	103
73	7
74	47
75	8
76	15
77	104
78	81
79	45
80	12
82	13
86	17
87	6
88	2
89	35
90	13
91	999
92	85
93	4
98	5
100	23
101	5
102	19
103	84
104	538
105	66
106	12
110	19
112	7
113	10
114	45
115	84
116	37
117	196
118	29
120	6
121	3
128	17
129	66
130	96
131	54
132	5
134	11
135	3
136	4
141	6
142	4
143	9
144	7
147	23
148	16
156	6
157	11
158	208
159	29
160	5
161	6
162	30
173	13
174	9
175	3
176	26
177	3
178	2
190	379
191	868
192	124
193	49
194	6
