Mass Spectrum: Uracil, 1-methyl-
Formula: C5H6N2O2
CAS: 615-77-0
Molecular weight: 126
m/z	intensity
26	171
27	170
28	191
29	49
30	7
31	1
37	3
38	18
39	31
40	77
41	55
42	999
43	78
44	24
45	0
49	1
50	2
51	27
52	76
53	66
54	101
55	278
56	43
57	2
58	2
62	0
65	0
66	2
67	7
68	3
69	6
70	29
72	0
76	0
77	0
79	1
80	2
81	17
82	233
83	340
84	28
85	0
94	1
96	4
97	4
98	0
101	0
109	1
110	0
111	0
125	1
126	825
127	53
128	7
