Mass Spectrum: Carbamic acid, methylnitroso-, ethyl ester
Formula: C4H8N2O3
CAS: 615-53-2
Molecular weight: 132
m/z	intensity
27	380
29	999
30	999
31	192
41	10
42	48
43	380
44	166
45	96
46	27
55	24
56	128
57	380
58	82
59	27
60	138
71	17
73	20
75	17
86	40
132	41
