Mass Spectrum: 2-Furancarboxylic acid, anhydride
Formula: C10H6O5
CAS: 615-08-7
Molecular weight: 206
m/z	intensity
25	6
26	23
27	18
28	9
29	69
36	11
37	97
38	195
39	482
40	18
41	37
42	6
44	28
45	8
49	6
50	6
51	12
52	8
53	25
54	8
55	12
65	6
66	19
67	32
68	8
77	4
78	8
79	4
81	8
82	3
83	3
95	999
96	65
97	3
112	8
113	6
178	55
179	6
206	4
