Mass Spectrum: .alpha.-D-Glucofuranose cyclic 1,2:3,5-bis(butylboronate)-6-acetate
Formula: C16H28B2O7
CAS: 61501-06-2
Molecular weight: 354
m/z	intensity
40	10
41	57
42	19
43	999
44	26
45	16
53	14
54	13
55	58
56	34
57	61
67	11
68	18
69	48
70	66
71	28
72	14
73	17
81	24
82	27
83	101
84	23
85	30
86	14
87	20
95	11
96	26
97	52
98	18
99	44
101	17
109	19
110	16
111	35
112	26
113	24
114	11
115	27
124	16
125	55
126	82
127	97
128	22
129	59
135	16
137	15
138	67
139	293
140	69
141	20
142	14
143	41
152	14
153	31
154	19
155	53
165	14
166	16
167	99
168	286
169	49
170	15
171	30
180	27
181	122
182	16
185	14
186	40
193	23
194	10
195	11
197	25
209	39
210	149
211	33
223	13
227	14
228	20
236	14
237	30
295	13
296	88
297	205
298	27
