Mass Spectrum: 2-Penten-4-yn-1-ol, 3-methyl-, (E)-
Formula: C6H8O
CAS: 6153-06-6
Molecular weight: 96
m/z	intensity
31	15
39	620
40	40
41	735
42	35
43	260
44	15
50	75
51	105
52	55
53	660
54	40
57	155
58	50
63	160
64	20
65	230
66	20
67	530
68	205
69	20
77	160
78	100
81	999
82	85
95	865
96	600
97	37
98	1
