Mass Spectrum: Methyl orotate
Formula: C6H6N2O4
CAS: 6153-44-2
Molecular weight: 170
m/z	intensity
14	1
15	22
16	1
17	3
18	3
25	1
26	1
27	6
28	23
29	1
30	1
31	5
32	2
33	1
38	6
39	25
40	114
41	15
42	6
43	7
44	12
45	7
51	1
52	2
53	14
54	6
55	4
56	1
58	1
59	15
60	1
65	2
66	1
67	45
68	999
69	51
70	13
71	1
81	2
82	2
83	1
84	1
85	1
91	17
92	1
95	1
97	37
98	6
99	67
100	6
102	2
104	1
109	1
110	3
111	7
112	10
113	1
121	1
124	2
126	1
127	157
128	22
129	2
133	2
137	1
139	23
140	3
170	598
171	46
172	6
