Mass Spectrum: N-(2-Methyl-2H-tetrazol-5-yl)-acetamide
Formula: C4H7N5O
CAS: 6154-06-9
Molecular weight: 141
m/z	intensity
25	3
26	12
27	127
28	136
29	38
30	8
31	3
35	1
36	2
38	6
39	10
40	25
41	50
42	200
43	999
44	183
45	14
50	1
51	4
52	4
53	8
54	11
55	16
56	6
57	12
58	4
59	2
60	3
61	2
67	4
68	4
69	12
70	39
71	779
72	57
73	4
77	2
79	3
81	4
82	4
83	6
84	6
85	6
91	3
92	2
93	3
94	2
95	4
96	3
97	4
98	2
99	63
100	7
102	3
103	2
104	2
105	2
107	2
108	2
109	2
110	2
111	3
112	4
113	174
114	22
115	3
121	2
122	2
123	2
124	2
125	2
126	21
127	3
129	2
141	137
142	25
143	2
