Mass Spectrum: N-Benzoyl-l-tyrosine p-nitroanilide
Formula: C22H19N3O5
CAS: 6154-45-6
Molecular weight: 405
m/z	intensity
26	1
27	6
28	8
29	1
30	9
37	1
38	4
39	17
40	2
41	4
42	2
43	4
44	7
50	12
51	42
52	14
53	9
54	2
55	4
57	1
61	1
62	3
63	11
64	9
65	34
66	5
67	1
74	3
75	8
76	18
77	341
78	38
79	14
80	7
81	2
89	4
90	9
91	20
92	21
93	4
94	4
102	1
103	7
104	11
105	999
106	98
107	485
108	108
109	9
110	1
111	1
116	2
117	2
118	5
119	20
120	25
121	8
122	430
123	34
124	2
131	1
132	3
133	9
134	15
135	4
136	6
137	2
138	34
139	25
140	2
144	2
145	1
146	10
147	645
148	65
149	8
150	1
161	91
162	12
163	5
164	5
165	3
166	1
174	1
177	9
178	4
179	2
180	1
181	1
194	3
195	2
196	1
209	1
212	1
220	1
221	1
222	2
223	2
224	1
225	3
237	3
238	3
239	37
240	60
241	9
242	1
254	2
255	1
265	9
266	2
267	6
268	7
269	1
281	2
282	1
283	40
284	150
285	26
286	3
299	25
300	5
355	1
375	7
376	2
405	11
406	3
