Mass Spectrum: .alpha.-d-Xylopyranoside, 2,4-O-(ethylboranediyl)-1-O-methyl-
Formula: C8H15BO5
CAS: 61553-47-7
Molecular weight: 202
m/z	intensity
25	2
26	21
27	163
28	54
29	303
30	13
31	129
33	61
34	0
37	3
38	4
39	55
40	17
41	66
42	76
43	233
44	59
45	122
46	2
47	2
49	1
50	3
51	5
52	6
53	19
54	19
55	63
56	72
57	493
58	50
59	44
60	39
61	999
62	22
63	4
64	1
66	3
67	4
68	18
69	197
70	185
71	106
72	8
73	25
74	63
75	6
76	0
77	0
79	1
80	2
81	2
82	29
83	128
84	16
85	42
86	78
87	48
88	3
89	0
91	137
92	5
93	1
94	0
95	4
96	17
97	86
98	244
99	64
100	9
101	4
103	1
104	0
108	1
109	4
110	93
111	418
112	288
113	140
114	9
115	3
117	1
123	5
124	29
125	51
126	11
127	26
128	5
129	1
133	0
139	0
140	3
141	11
142	43
143	65
144	3
145	1
151	0
152	0
153	1
154	1
155	1
169	0
170	1
171	3
173	2
185	0
202	0
