Mass Spectrum: .alpha.-D-Glucopyranoside, methyl, cyclic 4,6-(ethylboronate) 2,3-diacetate
Formula: C13H21BO8
CAS: 61553-57-9
Molecular weight: 316
m/z	intensity
26	11
28	137
29	9
30	3
31	5
32	2
33	1
36	1
38	0
39	3
40	1
41	7
42	11
43	999
44	26
45	12
46	0
49	0
50	1
51	0
52	0
53	3
54	2
55	7
56	4
57	19
58	1
59	5
60	30
61	44
62	1
63	0
65	0
66	0
67	1
68	5
69	21
70	16
71	12
73	23
74	29
75	2
76	0
77	0
78	0
79	0
80	2
81	30
82	5
83	13
84	12
85	13
86	5
87	24
88	1
89	0
90	0
91	0
93	0
94	2
95	2
96	3
97	15
98	34
99	57
100	7
101	2
102	412
103	67
104	5
105	0
108	0
109	5
110	27
111	127
112	136
113	14
114	1
115	47
116	8
117	4
120	0
122	0
123	5
124	21
125	32
126	6
127	11
128	2
129	7
130	0
135	1
136	5
137	10
138	5
139	8
140	4
141	8
142	12
143	15
144	420
145	43
146	5
147	0
149	1
150	0
151	2
152	9
153	90
154	242
155	33
156	3
157	6
158	3
159	0
163	0
164	1
165	4
166	1
167	3
168	1
169	24
170	3
171	5
172	0
178	0
180	0
181	2
182	7
183	21
184	3
185	2
186	0
187	1
194	0
195	11
196	51
197	8
198	1
199	0
200	1
201	0
204	0
212	2
213	9
214	3
215	0
223	0
224	3
225	9
226	1
227	1
241	0
255	1
256	5
257	0
277	0
284	0
285	2
