Mass Spectrum: Cyclohexanone, hydrazone
Formula: C6H12N2
CAS: 6156-08-7
Molecular weight: 112
m/z	intensity
39	360
41	999
42	330
43	40
51	30
52	20
53	170
54	560
55	770
56	90
57	70
65	30
66	30
67	300
68	140
69	450
70	30
76	70
78	10
79	80
80	60
81	120
82	200
83	40
93	40
94	80
95	90
96	650
97	120
98	100
110	60
111	10
112	540
113	40
114	20
