Mass Spectrum: N(2)-(Biphenyl-4-ylacetyl)glutamine
Formula: C19H20N2O4
CAS: 61578-79-8
Molecular weight: 340
m/z	intensity
63	100
65	70
82	300
83	220
84	999
85	230
89	80
91	40
101	150
102	260
110	150
115	250
127	190
128	200
129	60
139	120
151	190
152	280
153	140
155	130
163	190
164	160
165	150
166	290
168	210
169	110
192	70
195	300
322	150
323	160
339	30
340	80
341	30
