Mass Spectrum: Oxazole, 4,5-dihydro-2,5-dimethyl-
Formula: C5H9NO
CAS: 6159-22-4
Molecular weight: 99
m/z	intensity
26	59
27	148
28	181
29	75
30	20
39	46
40	18
41	31
42	93
43	190
54	181
55	999
56	159
84	28
99	125
