Mass Spectrum: Oxazole, 4,5-dihydro-2,4-dimethyl-
Formula: C5H9NO
CAS: 6159-23-5
Molecular weight: 99
m/z	intensity
26	210
27	312
28	375
29	171
30	50
38	31
39	109
40	71
41	151
42	999
43	343
54	46
55	23
56	421
57	78
68	468
69	740
70	50
84	535
98	15
99	290
100	20
