Mass Spectrum: 1,1-Diheptyl-4,4-bipyridinium dibromide
Formula: C24H38Br2N2
CAS: 6159-05-3
Molecular weight: 512
m/z	intensity
14	1
15	9
25	1
26	34
27	205
28	57
29	226
30	7
32	1
36	1
37	9
38	18
39	172
40	35
41	569
42	159
43	477
44	16
45	1
47	1
48	1
49	8
50	75
51	108
52	35
53	43
54	32
55	407
56	175
57	999
58	48
59	1
60	4
61	9
62	17
63	38
64	9
65	11
66	4
67	28
68	16
69	194
70	98
71	30
72	2
73	8
74	31
75	50
76	67
77	33
78	44
79	29
80	67
81	27
82	70
83	25
84	8
85	6
86	5
87	7
88	5
89	16
90	4
91	4
92	4
93	8
94	1
95	9
96	7
97	15
98	21
99	9
100	8
101	36
102	68
103	58
104	16
105	3
106	4
107	31
108	4
109	28
110	4
111	5
112	4
113	1
114	2
115	5
116	39
117	8
118	3
119	1
120	1
121	5
122	1
123	4
124	2
125	2
126	3
127	11
128	80
129	83
130	46
131	6
132	1
133	1
134	3
135	378
136	17
137	367
138	16
139	2
140	2
141	4
142	4
143	4
144	3
145	1
147	1
149	28
150	2
151	27
152	2
153	5
154	7
155	287
156	810
157	143
158	12
159	2
165	1
166	1
167	2
168	2
169	8
170	61
171	13
172	2
173	1
174	1
176	1
177	4
178	16
179	2
180	11
181	3
182	1
183	12
184	5
185	3
191	1
192	1
193	1
194	5
195	9
196	4
197	6
198	2
199	1
204	1
205	1
206	1
207	6
208	3
209	3
210	1
211	4
212	1
213	2
218	1
219	1
220	4
221	4
222	2
223	1
224	1
225	3
226	1
227	1
228	1
231	1
233	2
234	1
235	1
236	1
237	1
239	1
241	1
242	1
244	1
245	1
247	2
248	1
249	1
250	1
251	1
252	1
253	19
254	6
255	128
256	31
257	6
258	1
259	1
261	1
263	1
264	1
265	3
266	1
267	1
268	1
269	4
270	1
271	1
274	2
275	1
276	1
277	11
278	3
279	11
280	2
281	2
282	3
283	1
284	1
285	1
291	1
293	2
294	1
295	1
296	1
297	1
303	1
305	1
306	1
307	1
310	1
311	2
319	1
321	1
325	1
346	1
347	1
348	4
349	3
350	5
351	3
352	12
353	8
354	60
355	15
356	5
357	2
