Mass Spectrum: 1-Methoxy-2,3-cis-dimethylaziridine (sin)
Formula: C5H11NO
CAS: 61593-25-7
Molecular weight: 101
m/z	intensity
29	180
30	60
31	30
39	50
40	20
41	360
42	800
43	90
44	40
45	20
53	20
54	20
55	100
56	200
58	20
68	70
69	20
70	999
71	40
72	20
86	30
87	4
101	20
102	2
