Mass Spectrum: Propanedioic acid, propyl-
Formula: C6H10O4
CAS: 616-62-6
Molecular weight: 146
m/z	intensity
25	29
27	203
28	116
29	212
30	14
31	21
37	6
38	16
39	137
40	17
41	274
42	163
43	203
44	972
45	196
46	15
47	6
50	14
51	16
53	21
54	8
55	188
56	97
57	49
58	5
59	19
60	999
61	78
62	8
69	7
73	459
74	45
83	8
84	8
85	17
87	29
