Mass Spectrum: 1,3-Diamino-2-propanol
Formula: C3H10N2O
CAS: 616-29-5
Molecular weight: 90
m/z	intensity
14	3
15	52
16	8
17	13
18	100
19	2
26	4
27	13
28	128
29	25
30	999
31	34
32	11
38	2
39	5
40	7
41	20
42	183
43	55
44	66
45	24
46	1
47	9
52	2
53	1
54	8
55	14
56	47
57	7
58	8
59	14
60	314
61	37
62	1
68	1
69	2
70	5
71	102
72	79
73	19
74	2
75	1
91	2
