Mass Spectrum: dl-Ornithine
Formula: C5H12N2O2
CAS: 616-07-9
Molecular weight: 132
m/z	intensity
14	4
15	30
16	5
17	4
18	14
25	1
26	13
27	62
28	297
29	90
30	496
31	23
32	2
33	2
34	1
39	54
40	16
41	116
42	133
43	617
44	86
45	18
46	5
50	2
51	5
52	9
53	10
54	33
55	28
56	618
57	142
58	350
59	16
65	1
66	3
67	6
68	64
69	999
70	299
71	19
72	1
73	2
74	7
75	22
78	1
79	1
80	1
81	2
82	3
83	9
84	8
85	64
86	59
87	16
88	1
89	2
93	1
94	1
95	2
96	3
97	22
98	3
99	2
103	8
110	3
111	2
112	16
113	5
114	29
115	8
