Mass Spectrum: 1H-Pyrrole, 3-methyl-
Formula: C5H7N
CAS: 616-43-3
Molecular weight: 81
m/z	intensity
29	8
30	5
36	5
37	22
38	45
39	91
40	70
41	54
42	6
48	5
49	30
50	112
51	135
52	154
53	395
54	51
55	6
61	1
62	2
63	3
64	3
65	4
66	2
74	1
75	5
76	4
78	74
80	999
81	736
82	44
83	1
