Mass Spectrum: 1H-Imidazole, 1,1'-carbonothioylbis-
Formula: C7H6N4S
CAS: 6160-65-2
Molecular weight: 178
m/z	intensity
25	5
26	76
27	19
29	12
33	5
37	4
38	31
39	71
40	285
41	160
42	12
43	21
44	43
45	62
46	11
47	3
50	5
51	36
52	131
53	28
54	3
55	17
56	12
57	379
58	103
59	42
60	36
64	8
65	12
66	27
67	50
68	581
69	46
70	45
71	17
72	12
73	5
74	3
76	8
77	5
79	17
80	6
81	9
82	7
83	60
84	999
85	51
86	48
87	3
91	5
92	5
93	12
94	6
95	8
96	3
97	6
104	3
105	4
106	6
107	12
109	3
110	13
111	878
112	54
113	40
119	6
120	415
121	33
122	2
123	3
124	14
125	4
134	6
135	3
150	8
151	42
152	5
162	7
167	2
177	19
178	934
179	103
180	48
181	4
