Mass Spectrum: 3-n-Butylthiane,S-oxide
Formula: C9H18OS
CAS: 61639-14-3
Molecular weight: 174
m/z	intensity
51	140
52	120
53	90
54	90
55	830
56	120
57	170
58	10
59	70
60	40
61	50
62	10
63	420
64	20
65	50
66	10
67	250
68	130
69	999
70	100
71	210
72	120
73	460
74	460
75	210
76	90
77	190
78	710
79	70
81	170
82	50
83	220
87	710
88	40
89	50
90	20
91	10
93	10
95	80
96	20
97	40
98	10
99	20
100	20
101	290
102	20
103	40
104	100
105	20
109	20
111	20
113	20
114	10
115	70
116	10
117	120
118	20
123	10
124	10
125	30
129	20
131	50
143	10
145	70
157	620
158	130
159	50
174	270
175	29
176	13
177	1
