Mass Spectrum: 1,6-Dibromo-2-cyclohexylpentane
Formula: C11H20Br2
CAS: 61639-12-1
Molecular weight: 310
m/z	intensity
36	40
37	28
38	34
39	325
40	71
41	763
42	68
43	105
44	20
45	9
49	7
50	52
52	29
53	190
54	139
55	999
56	70
57	65
63	18
64	7
65	51
66	37
67	352
68	98
69	302
70	26
71	21
77	78
78	28
79	122
80	41
81	285
82	224
83	951
84	53
85	10
89	6
91	60
92	10
93	56
94	24
95	161
96	78
97	106
98	9
99	13
105	13
106	9
107	50
108	15
109	111
110	15
111	8
115	10
117	10
119	14
120	8
121	38
122	11
123	30
124	9
128	9
129	5
131	13
132	5
133	20
134	8
135	36
136	8
137	14
138	5
147	19
148	33
149	49
150	48
151	79
152	12
161	11
162	8
163	15
164	8
165	6
174	5
175	31
176	4
177	26
178	3
184	5
187	6
189	8
191	8
197	6
205	5
206	6
217	8
219	6
226	5
229	11
230	11
231	82
232	18
233	74
234	9
310	2
312	3
314	2
