Mass Spectrum: 3-n-Hexylthiane, S,S-dioxide
Formula: C11H22O2S
CAS: 61639-18-7
Molecular weight: 218
m/z	intensity
53	100
54	120
55	999
56	860
57	340
67	250
68	180
69	910
70	380
71	170
81	170
82	170
83	780
84	240
85	80
95	130
96	60
97	520
98	130
109	50
110	40
111	190
112	60
120	30
121	40
122	20
126	90
133	90
134	40
135	20
148	20
151	20
152	310
153	110
166	30
175	20
183	30
192	20
201	56
202	80
203	30
218	30
219	4
220	1
