Mass Spectrum: Methoxytrimethylgermanium
Formula: C4H12GeO
CAS: 6163-67-3
Molecular weight: 150
m/z	intensity
70	7
71	38
72	24
73	53
74	46
75	63
76	4
77	7
85	85
86	17
87	143
88	51
89	184
90	7
91	65
101	574
102	38
103	761
104	257
105	999
106	29
107	209
115	53
117	87
118	36
119	102
121	31
131	474
133	622
134	192
135	846
136	262
137	180
146	24
148	32
149	11
150	42
151	11
