Mass Spectrum: 1,2-Dioxin-3-acetic acid, 6-hexadecyl-3,6-dihydro-6-methoxy-, methyl ester
Formula: C24H44O5
CAS: 61656-50-6
Molecular weight: 412
m/z	intensity
30	350
31	250
43	999
55	610
57	890
69	370
71	420
81	190
83	270
85	230
95	220
97	450
109	210
111	290
113	880
123	270
155	90
170	100
183	60
211	90
267	100
293	100
321	280
380	690
