Mass Spectrum: Pentadecane, 7-methyl-
Formula: C16H34
CAS: 6165-40-8
Molecular weight: 226
m/z	intensity
25	2
26	10
27	65
28	15
29	179
30	4
31	1
36	0
37	0
38	1
39	29
40	23
41	266
42	66
43	704
44	21
45	0
49	0
50	1
51	1
52	1
53	11
54	10
55	159
56	124
57	999
58	41
59	0
63	0
64	0
65	1
66	1
67	15
68	14
69	72
70	100
71	700
72	36
73	0
77	1
78	0
79	2
80	0
81	6
82	32
83	79
84	56
85	286
86	18
87	0
91	1
92	0
93	0
95	2
96	10
97	41
98	21
99	67
100	4
105	0
106	0
107	0
108	1
109	0
110	6
111	29
112	122
113	51
114	4
121	0
123	0
124	0
125	3
126	6
127	13
128	1
137	0
138	1
139	2
140	63
141	38
142	4
143	0
152	0
153	0
154	4
155	6
156	0
167	0
168	4
169	4
170	0
180	0
182	3
183	4
184	0
186	0
196	3
197	5
198	0
207	0
210	1
211	6
212	1
224	1
225	0
226	6
227	0
