Mass Spectrum: Benzamidomethyl benzoate
Formula: C15H13NO3
CAS: 61652-83-3
Molecular weight: 255
m/z	intensity
16	1
26	2
27	9
28	20
29	44
30	45
31	2
37	5
38	10
39	11
40	1
41	2
43	3
44	13
45	11
46	9
47	1
49	4
50	53
51	144
52	15
53	3
55	2
56	2
57	5
61	2
62	2
63	4
64	1
65	4
66	1
67	1
69	2
70	1
71	3
73	4
74	17
75	17
76	47
77	585
78	52
79	3
81	2
82	1
83	3
84	1
85	2
91	1
92	1
93	1
95	2
96	1
97	3
98	1
99	1
102	1
103	85
104	12
105	999
106	96
107	7
109	1
111	2
113	1
121	283
122	32
123	3
125	1
133	26
134	18
135	19
136	1
139	1
149	11
150	4
151	5
152	1
