Mass Spectrum: Benzoic acid, 4-nitro-, (2,2-dimethyl-1,3-dioxolan-4-yl)methyl ester
Formula: C13H15NO6
CAS: 61656-62-0
Molecular weight: 281
m/z	intensity
33	0
34	0
36	0
37	1
38	7
39	42
40	18
41	74
43	999
44	22
45	5
46	3
47	0
48	0
50	78
51	13
52	2
53	6
55	24
56	11
57	39
58	12
59	69
61	32
63	19
64	21
65	21
66	5
67	2
68	0
69	1
71	25
72	105
73	75
74	34
75	79
76	184
77	23
78	3
79	3
80	2
81	2
83	29
85	17
86	4
87	1
88	2
89	2
90	4
92	106
93	11
94	1
95	1
96	0
97	0
99	36
101	397
103	54
104	259
105	24
106	2
107	1
108	0
109	1
110	13
112	0
114	21
115	4
116	1
117	0
118	2
119	10
120	72
121	21
122	7
123	0
124	0
125	0
127	0
129	0
131	0
132	0
134	23
135	3
136	1
137	2
138	4
139	0
145	0
146	1
147	2
150	512
151	39
152	5
153	0
155	0
156	0
162	0
163	0
164	1
165	0
166	0
167	0
168	4
169	0
176	1
177	3
178	0
180	0
181	0
182	0
184	0
186	0
192	0
193	0
194	0
206	0
208	0
210	1
220	2
221	0
222	1
223	0
224	0
234	0
236	1
237	0
249	0
250	1
251	0
252	0
258	0
261	0
262	0
263	1
264	4
266	199
267	25
268	3
269	0
