Mass Spectrum: 1-Pyrazolidinecarbothioamide, N-(4-chlorophenyl)-
Formula: C10H12ClN3S
CAS: 61653-55-2
Molecular weight: 241
m/z	intensity
14	42
15	19
16	17
26	13
27	59
29	40
30	121
34	12
36	21
37	18
38	23
39	47
40	47
41	96
42	91
43	113
44	417
45	19
49	10
50	85
51	48
52	11
54	11
55	12
56	23
57	20
59	14
60	25
61	18
62	18
63	41
64	22
67	13
69	37
70	40
71	349
72	999
73	46
74	50
75	227
76	39
84	58
85	29
86	29
87	25
88	12
89	13
90	30
98	11
99	42
100	12
101	11
102	22
106	26
107	12
108	16
111	336
112	36
113	121
114	22
125	33
126	12
127	50
129	13
133	15
134	70
135	17
137	35
138	26
139	14
140	11
142	22
143	20
144	39
145	10
146	13
167	19
169	693
170	113
171	287
172	44
173	24
195	20
208	13
239	22
241	188
242	25
243	68
