Mass Spectrum: 1,4-Methanonaphthalen-9-one, 1,2,3,4-tetrahydro-
Formula: C11H10O
CAS: 6165-88-4
Molecular weight: 158
m/z	intensity
27	30
39	60
50	60
51	150
52	30
62	30
63	90
64	160
65	60
74	40
75	40
76	40
77	60
78	30
89	30
102	60
115	350
116	40
127	100
128	230
129	530
130	999
131	110
132	10
