Mass Spectrum: Bis-(2,2,6,6-tetramethyl-4-piperidyloxy)-dimethylsilane
Formula: C20H42N2O2Si
CAS: 61670-21-1
Molecular weight: 370
m/z	intensity
36	24
37	2
38	15
39	41
41	164
42	168
43	98
44	35
45	34
46	10
47	1
50	4
51	8
52	2
53	18
54	3
55	117
56	64
57	45
58	554
59	33
60	15
61	5
63	2
64	1
65	9
66	2
67	36
68	10
69	39
70	33
71	41
72	20
73	20
74	4
75	46
76	9
77	18
78	2
79	17
80	6
81	25
82	40
83	50
84	36
85	50
86	39
87	8
88	1
91	11
92	3
93	9
94	9
95	16
96	18
97	6
98	120
99	83
100	13
101	22
102	2
103	4
104	1
105	13
107	32
108	27
109	10
110	9
111	9
112	38
113	22
114	16
115	6
116	6
119	6
120	1
121	10
122	17
124	999
125	83
126	7
127	4
128	1
129	6
131	1
132	4
133	4
134	1
135	19
136	2
137	5
138	13
139	7
140	39
142	247
143	18
144	2
149	40
150	4
153	3
155	1
156	3
157	6
158	9
159	20
160	8
163	1
166	7
167	9
169	1
170	41
171	4
216	14
232	111
233	18
234	5
242	2
279	1
355	20
356	5
