Mass Spectrum: Silane, trimethyl(6-methyl-5-hepten-1-ynyl)-
Formula: C11H20Si
CAS: 61685-11-8
Molecular weight: 180
m/z	intensity
27	30
28	7
29	15
31	4
39	40
40	6
41	328
42	12
43	70
44	13
45	32
51	8
53	29
54	8
55	39
56	3
57	6
58	8
59	120
60	8
61	8
65	4
66	15
67	31
68	16
69	999
70	57
71	6
72	4
73	484
74	41
75	18
77	6
79	8
81	56
82	11
83	61
84	5
85	15
91	10
93	6
94	11
96	78
97	68
98	9
99	7
105	17
106	112
107	19
109	29
110	4
111	8
112	9
120	17
121	18
123	45
124	5
135	20
137	13
163	21
164	4
165	215
166	33
167	9
180	16
