Mass Spectrum: 1-Propanol, 2-amino-, (.+/-.)-
Formula: C3H9NO
CAS: 6168-72-5
Molecular weight: 75
m/z	intensity
13	6
14	17
15	68
16	5
17	30
18	244
26	28
27	68
28	94
29	87
30	66
31	63
38	11
39	23
40	25
41	65
42	183
43	86
44	999
45	45
55	6
56	19
57	14
58	7
59	9
60	35
74	6
