Mass Spectrum: 2-Butenoic acid, 2-methyl-, 2-methyl-2-propenyl ester, (E)-
Formula: C9H14O2
CAS: 61692-82-8
Molecular weight: 154
m/z	intensity
26	7
27	78
28	19
29	122
30	3
37	4
38	10
39	163
40	23
41	37
45	8
49	1
50	13
51	25
52	12
53	87
54	54
55	806
59	4
63	2
65	5
66	2
67	35
69	19
77	9
78	2
79	14
80	2
81	18
82	25
83	999
84	54
91	11
92	2
93	22
94	7
95	17
96	3
97	8
101	7
105	2
107	4
108	5
109	51
110	4
111	8
112	3
113	2
119	4
120	1
121	5
122	2
125	12
126	1
137	5
139	24
140	2
