Mass Spectrum: 2,6,10,14-Hexadecatetraen-1-ol, 3,7,11,15-tetramethyl-, acetate, (E,E,E)-
Formula: C22H36O2
CAS: 61691-98-3
Molecular weight: 332
m/z	intensity
28	3
29	65
30	1
31	0
37	0
38	0
39	44
40	27
41	439
42	23
43	438
44	9
45	2
50	1
51	5
52	4
53	72
54	8
55	132
56	10
57	31
58	3
59	0
60	1
61	1
62	0
63	1
64	0
65	19
66	7
67	164
68	255
69	999
70	54
71	12
72	0
73	1
76	0
77	38
78	7
79	91
80	73
81	555
82	62
83	25
84	21
85	28
86	2
91	58
92	48
93	327
94	70
95	195
96	22
97	15
98	2
99	0
103	3
104	1
105	68
106	25
107	197
108	46
109	105
110	13
111	8
112	0
115	2
116	0
117	4
118	2
119	87
120	34
121	162
122	57
123	103
124	14
125	2
126	5
127	10
128	1
129	0
131	6
132	9
133	84
134	64
135	160
136	191
137	102
138	10
139	1
140	1
145	12
146	8
147	67
148	54
149	46
150	9
151	2
152	0
153	1
154	0
159	22
160	8
161	79
162	19
163	16
164	3
165	1
171	0
173	7
174	3
175	21
176	7
177	11
178	2
179	0
180	1
187	15
188	6
189	50
190	19
191	19
192	10
193	1
195	0
199	0
201	9
202	9
203	49
204	89
205	19
206	2
207	0
208	1
209	0
215	6
216	5
217	4
218	0
221	2
229	22
230	5
231	0
243	2
244	0
245	0
248	0
249	1
250	4
251	0
257	13
258	2
259	0
261	0
262	0
263	25
264	4
265	0
271	0
272	39
273	10
274	0
276	0
289	4
290	1
305	0
317	0
332	34
333	8
334	1
