Mass Spectrum: 2-Butenoic acid, 2-methyl-, 2-methylbutyl ester, (Z)-
Formula: C10H18O2
CAS: 61692-77-1
Molecular weight: 170
m/z	intensity
26	4
27	67
28	17
29	126
30	4
31	4
37	1
38	6
39	146
40	19
41	127
42	67
43	332
44	12
45	17
49	1
50	9
51	18
52	10
53	83
54	74
55	735
56	58
57	28
58	5
59	2
60	1
65	1
66	1
67	6
68	2
69	24
70	276
71	196
72	15
74	1
81	5
82	149
83	832
84	53
85	84
86	8
87	3
93	1
96	5
97	3
99	22
100	999
101	156
102	11
103	1
107	1
111	4
112	1
113	4
114	1
121	2
125	1
136	2
137	1
139	1
140	1
141	2
155	1
170	16
171	2
