Mass Spectrum: 2-Butenoic acid, 2-methyl-, 2-methylpropyl ester, (E)-
Formula: C9H16O2
CAS: 61692-84-0
Molecular weight: 156
m/z	intensity
12	0
15	2
16	0
19	0
24	0
25	0
26	8
27	139
28	39
29	244
30	7
31	5
32	0
33	0
36	0
37	1
38	5
39	111
40	14
41	120
42	9
43	27
44	2
45	11
46	0
47	0
48	0
49	0
50	5
51	11
52	6
53	50
54	36
55	469
56	193
57	87
58	4
59	2
60	0
62	0
63	0
64	0
65	0
66	0
67	1
68	0
69	5
70	1
71	1
72	1
73	16
74	1
75	0
77	0
79	0
80	0
81	3
82	35
83	999
84	54
85	29
86	1
87	0
88	0
91	0
93	0
94	0
95	1
96	1
97	0
98	1
99	10
100	47
101	568
102	31
103	3
104	0
107	0
109	0
110	0
111	0
112	0
113	4
114	1
115	0
123	2
124	0
125	0
126	0
127	0
128	0
138	0
139	0
141	7
142	0
155	0
156	0
157	0
158	0
