Mass Spectrum: Benzenemethanol, .alpha.,.alpha.-dimethyl-
Formula: C9H12O
CAS: 617-94-7
Molecular weight: 136
m/z	intensity
26	4
27	14
28	19
29	3
31	7
34	1
38	3
39	42
40	2
41	13
43	999
44	13
47	2
50	28
51	78
52	13
53	2
54	2
57	3
58	23
59	20
60	23
62	4
63	15
64	3
65	16
67	3
74	4
75	5
76	7
77	96
78	85
79	10
82	2
89	5
91	38
92	3
93	5
96	2
101	2
102	7
103	62
104	5
105	22
107	1
109	2
115	26
116	8
117	82
118	115
119	12
121	751
122	29
132	1
135	1
136	16
