Mass Spectrum: Butanedioic acid, chloro-, (.+/-.)-
Formula: C4H5ClO4
CAS: 617-41-4
Molecular weight: 152
m/z	intensity
12	1
13	3
14	7
15	14
16	1
17	2
18	9
24	2
25	14
26	114
27	499
28	111
29	45
30	2
31	7
32	1
35	9
36	94
37	8
38	30
39	1
40	1
41	9
42	33
43	94
44	49
45	412
46	69
47	11
48	5
49	6
50	2
51	2
52	3
53	41
54	27
55	320
56	15
57	1
59	1
60	8
61	39
62	354
63	95
64	114
65	46
66	1
67	7
69	3
70	6
71	214
72	59
73	999
74	37
75	5
76	4
78	3
79	6
80	1
81	14
82	5
83	1
87	1
88	56
89	75
90	61
91	28
92	18
93	2
98	54
99	82
100	6
101	1
106	439
107	65
108	183
109	22
110	14
116	16
117	8
124	31
125	1
126	9
134	342
135	42
136	111
137	13
138	1
152	5
153	2
154	2
155	1
