Mass Spectrum: DL-Glutamic acid
Formula: C5H9NO4
CAS: 617-65-2
Molecular weight: 147
m/z	intensity
14	2
15	6
16	2
17	21
18	82
19	1
25	1
26	16
27	46
28	271
29	52
30	37
31	3
36	1
37	2
38	6
39	27
40	10
41	326
42	49
43	33
44	46
45	32
46	16
47	1
50	1
51	3
52	8
53	5
54	28
55	50
56	189
57	22
58	5
59	3
60	4
61	1
64	1
65	1
66	9
67	10
68	4
69	4
70	7
71	2
72	3
73	18
74	128
75	7
76	1
77	1
79	1
82	7
83	52
84	999
85	82
86	5
87	38
88	7
95	2
100	2
101	45
102	392
103	20
104	2
111	1
113	1
128	1
129	99
130	12
131	1
148	3
149	1
