Mass Spectrum: Ethyl hydrogen oxalate
Formula: C4H6O4
CAS: 617-37-8
Molecular weight: 118
m/z	intensity
12	20
14	27
15	28
16	36
26	80
27	258
28	901
29	430
31	562
32	75
42	22
43	84
44	999
45	253
46	20
47	73
56	61
59	11
73	36
74	101
