Mass Spectrum: 2-Dimethylamino-3-methylpyridine
Formula: C8H12N2
CAS: 61713-46-0
Molecular weight: 136
m/z	intensity
77	10
78	30
79	19
80	9
91	10
92	480
93	469
94	151
95	9
104	30
105	30
106	50
107	999
108	99
109	10
118	20
119	30
120	9
121	430
122	50
133	29
135	49
136	478
137	40
