Mass Spectrum: Methanesulfonamide, N-[(phenylamino)thioxomethyl]-
Formula: C8H10N2O2S2
CAS: 6171-11-5
Molecular weight: 230
m/z	intensity
41	30
42	10
43	10
44	20
45	50
46	30
47	10
48	40
50	60
51	120
52	50
53	10
54	20
58	60
59	20
60	10
61	10
62	20
63	60
64	50
65	280
66	200
67	30
72	80
73	40
74	20
75	20
76	20
77	230
78	40
79	360
80	80
81	30
90	20
91	70
92	190
93	999
94	80
95	40
96	10
97	10
103	30
108	10
109	50
110	80
111	20
117	70
118	330
119	80
123	10
124	20
130	10
131	10
135	270
136	40
137	170
138	10
139	20
150	40
151	210
152	40
153	10
194	10
196	60
197	40
229	20
230	260
231	30
232	30
