Mass Spectrum: 2-Carboxy-3-methyl-succinate, tris(trimethylsilyl)-
Formula: C15H32O6Si3
CAS: 61713-71-1
Molecular weight: 392
m/z	intensity
3	5
14	8
17	17
26	6
27	6
28	27
29	11
31	5
39	12
40	7
41	76
42	6
43	40
44	39
45	154
46	12
47	32
53	7
55	23
56	6
57	10
58	19
59	34
60	8
61	24
66	8
67	9
68	15
69	646
70	34
71	9
72	33
73	999
74	94
75	275
76	20
77	13
83	8
85	6
86	9
87	5
89	7
95	16
97	31
98	8
99	37
100	5
101	5
103	6
105	5
113	7
115	14
116	5
117	18
119	9
127	6
129	15
130	10
131	31
132	8
133	84
134	12
135	12
141	9
142	8
143	100
144	14
145	9
147	436
148	73
149	84
150	13
151	7
157	17
158	5
159	7
161	12
169	71
170	14
171	23
173	8
177	9
179	6
183	9
184	5
185	121
186	21
187	13
190	6
191	10
192	5
201	8
203	6
204	5
207	12
213	14
214	17
215	5
216	46
217	11
218	52
219	14
220	10
221	12
222	5
231	734
232	164
233	81
234	18
235	11
236	6
243	79
244	16
245	23
246	6
248	64
249	16
250	9
259	775
260	172
261	82
262	15
263	5
273	15
274	6
275	63
276	17
277	8
287	322
288	75
289	41
290	8
302	6
303	7
305	10
306	5
333	34
334	12
335	8
348	28
349	19
350	9
351	6
363	5
377	299
378	96
379	51
380	12
381	5
392	5
