Mass Spectrum: 1,3-Dioxepane, 2-heptyl-
Formula: C12H24O2
CAS: 61732-92-1
Molecular weight: 200
m/z	intensity
26	3
27	45
28	1
29	67
30	1
31	33
38	0
39	27
40	17
41	109
42	69
43	106
44	18
45	8
46	0
47	0
50	0
51	1
52	0
53	7
54	7
55	685
56	40
57	30
58	3
59	2
60	0
65	1
66	1
67	13
68	6
69	27
70	7
71	170
72	10
73	44
74	1
75	0
77	0
79	1
80	0
81	7
82	4
83	4
84	3
85	2
86	0
87	0
88	0
89	1
91	0
93	0
95	2
96	0
97	1
98	0
99	2
100	0
101	999
102	54
103	5
104	0
109	1
110	1
111	1
114	0
115	0
116	2
127	3
128	0
129	0
145	1
169	0
172	3
173	0
199	3
200	9
201	1
