Mass Spectrum: 2,3,3-Trimethyl-pent-4-enoic acid
Formula: C8H14O2
CAS: 61740-75-8
Molecular weight: 142
m/z	intensity
26	8
27	93
28	21
29	46
30	3
31	5
37	2
38	9
39	135
40	22
41	616
42	33
43	67
44	3
45	42
50	12
51	29
52	12
53	93
54	20
55	200
56	25
57	41
58	3
59	36
62	3
63	7
65	19
66	10
67	73
68	15
69	999
70	89
71	81
72	7
73	25
74	91
75	10
77	11
78	2
79	20
80	3
81	90
82	16
83	22
84	2
85	13
86	5
87	16
91	2
95	6
96	18
97	106
98	7
99	14
100	7
101	7
109	20
110	2
111	2
112	1
113	3
114	1
115	1
124	12
125	6
127	63
128	5
141	2
142	26
143	7
