Mass Spectrum: Phenylacetaldehyde N-methyl-N-formylhydrazone
Formula: C10H12N2O
CAS: 61748-17-2
Molecular weight: 176
m/z	intensity
43	180
51	200
65	200
77	160
85	999
91	400
103	100
117	80
142	60
147	50
176	30
