Mass Spectrum: 5-Methyl-4-octanone
Formula: C9H18O
CAS: 6175-51-5
Molecular weight: 142
m/z	intensity
15	13
27	181
28	72
29	108
39	107
40	23
41	240
42	88
43	816
44	30
53	22
55	81
56	16
57	20
69	15
71	999
72	144
99	64
100	217
101	15
113	9
142	11
