Mass Spectrum: 2-Dodecanone
Formula: C12H24O
CAS: 6175-49-1
Molecular weight: 184
m/z	intensity
14	1
15	14
17	1
18	8
26	2
27	53
28	16
29	101
30	2
31	2
32	1
39	34
40	6
41	169
42	39
43	752
44	20
45	9
51	2
52	1
53	10
54	17
55	96
56	42
57	130
58	999
59	308
60	11
65	2
66	2
67	25
68	19
69	39
70	27
71	289
72	22
73	1
77	2
79	5
80	2
81	23
82	40
83	26
84	20
85	69
86	9
87	1
91	2
93	2
94	1
95	26
96	26
97	23
98	9
99	8
100	8
105	1
109	8
110	9
111	3
113	9
114	5
123	2
124	22
125	3
126	30
127	13
128	4
137	1
141	8
142	3
151	1
152	1
155	3
156	1
166	5
169	10
170	1
184	25
185	7
