Mass Spectrum: Oxiranepentanoic acid, 3-undecyl-, methyl ester, trans-
Formula: C19H36O3
CAS: 6175-11-7
Molecular weight: 312
m/z	intensity
30	18
31	44
32	81
33	5
34	1
35	3
36	16
37	5
38	9
39	163
40	34
41	925
42	178
43	980
44	91
45	54
46	3
47	3
48	3
49	3
50	7
51	18
52	18
53	116
54	211
55	999
56	279
57	677
58	90
59	301
60	30
61	14
62	6
63	11
64	8
65	59
66	104
67	847
68	297
69	577
70	243
71	327
72	38
73	92
74	496
75	71
76	10
77	192
78	136
79	704
80	987
81	675
82	485
83	500
84	248
85	220
86	20
87	676
88	62
89	13
90	10
91	233
92	68
93	577
94	500
95	551
96	451
97	456
98	435
99	92
100	31
101	129
102	29
103	11
104	11
105	62
106	64
107	209
108	146
109	259
110	162
111	269
112	142
113	191
114	54
115	386
116	59
117	25
118	14
119	35
120	22
121	196
122	150
123	149
124	109
125	133
126	342
127	90
128	59
129	123
130	107
131	42
132	11
133	22
134	12
135	206
136	179
137	97
138	102
139	60
140	324
141	257
142	38
143	159
144	30
145	57
146	11
147	16
148	9
149	139
150	120
151	54
152	74
153	55
154	162
155	94
156	28
157	97
158	405
159	45
160	9
161	15
162	7
163	53
164	53
165	45
166	66
167	43
168	51
169	40
170	14
171	33
172	126
173	25
174	4
175	8
176	2
177	35
178	64
179	56
180	44
181	36
182	22
183	53
184	12
185	47
186	8
187	7
188	1
189	10
190	3
191	15
192	12
193	18
194	11
195	22
196	19
197	70
198	74
199	40
200	9
201	3
202	2
203	5
204	2
205	255
206	55
207	14
208	8
209	16
210	9
211	15
212	25
213	11
214	4
215	3
216	1
217	2
218	11
219	13
220	665
221	123
222	14
223	9
224	5
225	12
226	5
227	11
228	6
229	5
230	2
231	1
232	2
233	12
234	36
235	20
236	7
237	6
238	10
239	14
240	5
241	68
242	11
243	3
244	3
245	39
246	9
247	4
248	2
249	1
250	2
251	10
252	33
253	15
254	5
255	14
256	5
257	1
258	1
259	1
260	4
261	5
262	115
263	82
264	19
265	6
266	3
267	7
268	3
269	1
270	1
279	7
280	13
281	40
282	10
283	4
284	189
285	38
286	4
287	1
293	3
294	444
295	97
296	14
297	2
298	1
309	1
310	1
311	1
312	13
313	3
