Mass Spectrum: 2,2-Diethoxyacetophenone
Formula: C12H16O3
CAS: 6175-45-7
Molecular weight: 208
m/z	intensity
14	1
15	6
18	2
19	6
26	7
27	57
28	19
29	181
30	6
31	15
32	2
37	1
38	3
39	10
40	1
41	3
42	1
43	9
44	3
45	20
46	1
47	999
48	11
49	4
50	28
51	108
52	9
53	2
54	1
55	1
57	2
58	2
59	2
60	1
61	1
62	2
63	6
64	1
65	5
73	1
74	7
75	552
76	28
77	250
78	25
79	110
80	8
89	6
90	4
91	17
92	2
102	3
103	818
104	49
105	221
106	21
107	9
108	1
117	1
118	2
119	2
120	2
121	1
122	5
123	1
133	1
135	75
136	7
137	1
147	1
150	1
163	27
164	5
165	1
179	1
