Mass Spectrum: 1-Benzoyl-2-hydroxyadamantane
Formula: C17H20O2
CAS: 61775-50-6
Molecular weight: 256
m/z	intensity
26	7
27	105
28	34
29	108
30	11
31	34
32	6
36	2
37	1
38	4
39	135
40	23
41	322
42	27
43	203
44	9
45	11
49	1
50	36
51	184
52	28
53	99
54	23
55	252
56	59
57	97
58	7
59	9
60	4
61	2
62	17
63	21
64	7
65	60
66	26
67	258
68	25
69	65
70	22
71	117
72	13
73	12
74	11
75	13
76	35
77	696
78	141
79	372
80	65
81	238
82	31
83	50
84	10
85	17
86	2
87	5
88	7
89	15
90	5
91	999
92	206
93	152
94	23
95	94
96	16
97	21
98	5
99	6
100	2
101	5
102	6
103	16
104	17
105	807
106	115
107	199
108	68
109	63
110	9
111	10
112	8
113	11
114	4
115	39
116	12
117	38
118	13
119	35
120	38
121	49
122	14
123	55
124	8
125	7
126	5
127	12
128	19
129	29
130	8
131	33
132	15
133	529
134	370
135	44
136	5
137	5
138	2
139	7
140	2
141	52
142	9
143	7
144	5
145	25
146	15
147	42
148	6
149	59
150	457
151	778
152	106
153	20
154	11
155	24
156	6
157	8
158	13
159	8
160	2
161	3
162	1
163	3
164	5
165	60
166	15
167	40
168	20
169	10
170	46
171	10
172	5
173	2
175	1
176	1
177	3
178	7
179	10
180	9
181	16
182	7
183	36
184	23
185	58
186	10
187	2
188	1
189	1
190	1
191	2
192	2
193	10
194	5
195	10
196	6
197	9
198	18
199	5
200	1
202	1
203	1
204	1
205	2
206	1
207	10
208	2
209	5
210	51
211	13
212	2
213	5
214	1
215	2
217	1
218	1
219	1
220	1
221	6
222	3
223	4
224	1
225	2
226	5
227	9
228	262
229	50
230	8
231	2
234	1
235	1
236	3
237	16
238	92
239	19
240	4
241	3
242	1
243	1
244	1
252	1
254	4
255	9
256	223
257	40
258	6
259	1
