Mass Spectrum: Furan, 3-pentyl-
Formula: C9H14O
CAS: 6177-84-0
Molecular weight: 138
m/z	intensity
27	134
29	77
39	109
41	119
51	66
52	66
53	156
54	85
55	57
65	42
66	36
67	68
68	40
69	40
77	27
79	32
80	32
81	657
82	999
83	77
95	224
96	68
109	36
138	194
