Mass Spectrum: Ethyl 1-acetonyl-2-oxocyclopentanecarboxylate
Formula: C11H16O4
CAS: 61771-77-5
Molecular weight: 212
m/z	intensity
39	70
40	100
41	130
43	999
55	130
67	200
68	80
71	80
95	280
97	170
110	80
111	320
113	130
123	260
124	210
138	70
139	150
141	70
166	340
167	120
212	4
