Mass Spectrum: 2-(.beta.-Diethylaminopropionyl)-5,7-dimethyl-1,2,3,4-tetrahydropyrimido(3,4-a)indole
Formula: C20H29N3O
CAS: 61802-43-5
Molecular weight: 327
m/z	intensity
58	214
72	34
86	999
87	62
101	75
115	18
126	20
127	28
128	30
143	23
144	15
155	24
156	141
157	62
158	111
170	60
171	327
172	83
198	48
199	705
200	100
212	20
241	77
312	21
326	13
327	510
