Mass Spectrum: 2-(.beta.-Dimethylaminopropionyl)-5,7-dimethyl-1,2,3,4-tetrahydropyrimido(3,4-a)indole
Formula: C18H25N3O
CAS: 61802-42-4
Molecular weight: 299
m/z	intensity
58	999
59	40
69	45
77	13
91	12
98	32
115	35
128	25
129	40
130	25
143	29
144	75
157	51
158	194
170	69
171	702
172	119
198	40
199	630
200	100
241	99
298	10
299	450
