Mass Spectrum: 16-Allopregnen-3.beta.,7.alpha.-diol-20-one
Formula: C21H32O3
CAS: 61834-68-2
Molecular weight: 332
m/z	intensity
41	177
43	999
44	37
45	15
47	1
49	6
51	9
53	62
55	169
57	112
58	6
59	3
63	0
65	35
66	6
67	85
68	7
69	39
70	10
71	14
73	3
77	69
78	9
79	108
81	87
82	3
83	29
84	6
85	7
86	4
89	2
91	135
93	126
94	21
95	55
96	4
97	12
98	0
99	9
100	2
102	0
103	11
105	98
107	178
108	6
109	41
110	3
111	10
112	2
113	3
115	26
116	6
117	40
119	57
120	4
121	56
122	13
123	15
124	3
125	8
127	7
128	16
129	29
130	11
131	47
133	63
135	64
136	14
137	15
138	3
141	12
142	6
143	40
144	8
145	103
146	10
147	79
148	3
149	20
150	1
151	6
152	2
153	5
154	2
155	16
156	1
157	34
158	2
159	61
160	9
161	26
162	4
163	10
164	1
165	5
166	0
167	5
168	2
169	10
170	1
171	39
172	5
173	62
174	3
175	48
176	7
177	6
178	2
179	3
181	7
182	2
183	11
184	2
185	25
186	4
187	35
188	13
189	62
190	9
191	3
193	2
194	2
195	6
196	1
197	13
198	2
199	17
200	1
201	17
202	6
203	5
204	2
205	1
207	3
209	4
210	0
211	9
212	2
213	7
214	3
215	3
217	3
221	3
223	5
224	1
225	7
226	2
227	4
229	1
235	2
237	8
238	5
239	14
240	3
241	4
242	2
251	3
253	45
254	8
255	4
257	2
263	7
267	0
269	7
271	406
272	82
273	9
279	4
281	47
282	10
283	0
285	2
287	11
289	62
290	11
295	3
296	12
297	19
299	205
300	38
301	5
312	0
313	13
314	163
315	40
316	1
317	19
318	3
330	4
331	2
332	55
333	19
334	8
