Mass Spectrum: Allopregnan-3.beta.,7.eta.,11.alpha.-triol-20-one, 3,7,11-triacetate
Formula: C27H40O7
CAS: 61834-78-4
Molecular weight: 476
m/z	intensity
41	41
43	999
44	11
45	12
49	2
51	0
53	12
55	53
57	10
58	3
59	1
61	46
62	0
63	0
65	4
67	45
69	30
71	46
73	1
77	15
79	57
81	85
83	16
84	24
85	56
86	1
91	49
93	76
95	73
97	18
98	3
99	2
101	0
103	3
104	5
105	57
106	20
107	54
108	17
109	31
111	7
112	0
113	1
115	5
116	1
117	26
118	24
119	37
120	16
121	26
122	13
123	13
125	3
127	1
128	4
129	17
130	12
131	42
132	20
133	33
135	17
136	2
137	11
138	2
139	1
141	9
142	13
143	36
144	28
145	60
147	31
149	17
151	4
152	1
153	1
154	0
155	14
156	5
157	35
159	48
160	3
161	15
163	6
165	4
167	5
168	3
169	16
170	9
171	19
172	6
173	12
174	6
175	5
176	5
177	4
178	0
179	2
181	6
182	2
183	14
184	8
185	11
186	10
187	17
188	25
189	11
190	1
191	5
192	2
193	2
195	7
196	2
197	21
198	5
199	7
200	6
201	5
202	8
203	4
204	0
205	3
207	4
209	5
210	4
211	72
212	19
213	14
214	1
215	6
216	1
217	1
219	0
220	1
221	2
222	0
223	12
225	12
226	34
227	9
228	1
229	2
230	1
231	1
233	0
235	1
236	2
237	5
238	11
239	10
241	7
242	4
243	1
244	1
245	0
247	0
249	3
250	0
251	4
252	1
253	51
254	10
255	11
256	1
257	4
258	0
259	1
260	0
261	0
263	10
264	2
265	0
267	2
268	1
269	2
271	14
272	20
273	5
274	1
277	1
278	4
279	5
281	76
282	15
283	3
284	0
285	6
286	27
287	5
288	0
289	0
295	6
296	61
297	91
298	40
299	8
300	1
309	0
310	1
311	2
312	1
313	43
314	11
315	2
323	1
328	0
331	0
338	11
339	4
341	25
342	5
343	0
353	0
354	1
355	2
356	306
357	119
358	23
359	3
373	1
374	2
375	0
401	0
416	4
417	10
418	2
419	0
476	0
