Mass Spectrum: Benzyl trans-4-coumarate
Formula: C16H14O3
CAS: 61844-62-0
Molecular weight: 254
m/z	intensity
38	8
39	76
50	20
51	61
52	14
53	18
62	17
63	70
64	33
65	266
66	19
69	30
74	10
75	15
76	9
77	78
78	20
79	36
89	93
90	57
91	999
92	93
101	15
102	11
107	41
115	52
116	17
118	56
119	141
120	321
121	41
132	13
146	17
147	532
148	65
160	20
163	39
176	9
181	7
191	5
194	31
195	17
208	117
209	224
210	35
211	6
236	50
237	11
253	8
254	242
255	44
