Mass Spectrum: Cyclobuta[a]dibenzo[c,f]cyclohepta-3,6-diene
Formula: C17H16
CAS: 61857-12-3
Molecular weight: 220
m/z	intensity
37	1
38	3
39	36
40	4
41	33
42	11
43	18
44	1
45	3
49	0
50	11
51	27
52	8
53	5
54	1
55	10
56	31
57	16
58	2
59	0
61	2
62	6
63	26
64	5
65	20
66	2
67	2
68	1
69	11
70	2
71	4
72	0
73	3
74	6
75	10
76	12
77	34
78	30
79	6
80	0
81	1
82	2
83	3
84	17
85	3
86	4
87	6
88	10
89	42
90	5
91	32
92	5
93	1
94	3
95	6
96	6
97	2
98	2
99	1
100	3
101	16
102	15
103	28
104	50
105	16
106	3
107	4
108	5
109	3
110	2
111	2
112	1
113	6
114	12
115	278
116	999
117	125
118	13
119	1
120	0
121	0
122	1
123	0
125	1
126	5
127	13
128	30
129	33
130	5
131	3
132	1
133	1
134	0
137	1
138	1
139	8
140	2
141	8
142	3
143	1
144	1
145	0
147	0
148	0
149	1
150	5
151	7
152	13
153	3
154	0
155	0
158	0
161	0
162	1
163	6
164	4
165	21
166	3
167	1
174	1
175	2
176	11
177	6
178	41
179	29
180	19
181	3
182	0
186	0
187	4
188	3
189	23
190	12
191	23
192	17
193	5
194	4
195	1
196	0
199	0
200	3
201	4
202	30
203	28
204	25
205	70
206	12
207	1
208	0
211	0
212	0
213	4
214	1
215	13
216	5
217	13
218	16
219	34
220	56
221	9
222	3
223	0
