Mass Spectrum: Propanedioic acid, methyl,ethyl ester
Formula: C6H10O4
CAS: 6186-89-6
Molecular weight: 146
m/z	intensity
33	20
38	1
39	5
41	119
42	595
43	605
44	52
45	141
46	5
47	2
53	1
55	10
57	235
59	651
60	34
61	6
69	127
70	10
71	7
72	10
74	518
75	29
76	4
77	2
84	1
85	1
86	17
87	55
88	8
89	1
90	2
98	4
101	999
102	43
103	6
112	1
115	188
116	11
118	93
119	574
120	27
121	5
131	5
146	15
147	2
