Mass Spectrum: 3.beta.-Acetoxy-17.beta.-methyl-d-homoandrostane-17a-one
Formula: C23H36O3
CAS: 61860-64-8
Molecular weight: 360
m/z	intensity
41	315
43	999
44	5
45	21
49	7
51	6
53	95
55	390
56	10
57	55
58	7
59	3
61	30
65	28
67	330
68	119
69	135
70	3
71	35
72	1
73	4
74	3
77	94
79	335
80	47
81	396
82	15
83	72
84	30
85	22
86	7
87	4
88	6
91	213
93	305
94	128
95	257
96	31
97	14
98	143
99	16
101	12
103	8
104	10
105	210
106	112
107	330
108	198
109	131
110	25
111	30
112	5
113	4
115	63
117	39
118	6
119	140
120	76
121	154
122	80
123	75
125	255
126	17
127	1
128	6
129	11
130	2
131	60
133	138
134	98
135	90
136	27
137	22
138	66
139	27
140	1
141	4
142	1
143	19
145	97
147	237
148	61
149	101
150	7
151	43
152	12
153	4
155	4
157	15
158	5
159	72
160	39
161	79
162	56
163	38
164	24
165	12
166	3
169	3
171	14
172	9
173	45
174	43
175	57
176	53
177	27
178	24
179	16
180	4
183	2
185	16
186	9
187	64
188	29
189	27
190	10
191	9
192	20
193	8
194	3
195	0
197	6
199	16
200	3
201	76
202	50
203	66
204	24
205	10
206	5
207	2
209	1
211	7
212	4
213	48
215	417
216	96
217	63
218	39
219	11
220	5
221	0
225	5
226	3
227	18
228	15
229	51
230	69
231	25
232	10
233	8
234	4
236	3
239	3
240	3
241	9
242	17
243	32
244	15
245	19
246	162
247	38
248	19
249	3
253	5
254	2
255	6
256	0
257	106
258	46
259	17
260	10
261	10
262	13
263	1
267	45
268	9
269	10
271	11
272	36
273	17
274	13
275	39
276	13
277	3
281	3
282	31
283	13
284	11
285	173
286	37
287	20
288	18
289	5
290	8
291	3
299	8
300	427
301	110
302	91
303	32
304	7
305	2
313	8
314	16
315	6
316	2
317	10
318	6
319	0
320	1
327	21
328	5
329	5
330	0
331	5
332	3
342	57
343	15
344	2
345	56
346	13
347	3
348	0
359	3
360	403
361	104
362	20
363	3
