Mass Spectrum: 2-(p-Bromophenyl)-3-oxobutyronitrile
Formula: C10H8BrNO
CAS: 6186-21-6
Molecular weight: 237
m/z	intensity
14	1
15	15
27	2
28	7
37	3
38	8
39	13
40	1
41	1
42	5
43	999
44	30
45	3
49	1
50	15
51	10
52	2
57	5
60	1
61	6
62	20
63	24
64	9
65	4
73	1
74	7
75	9
76	7
77	4
80	1
82	1
85	2
86	4
87	10
88	35
89	56
90	5
97	1
98	1
101	1
102	2
103	4
104	1
113	1
114	30
115	62
116	75
117	9
119	2
129	1
130	2
131	1
140	1
143	1
155	2
156	2
157	3
158	7
167	7
168	6
169	8
170	6
183	5
185	5
194	33
195	335
196	62
197	325
198	29
199	1
200	3
202	3
237	63
238	8
239	61
240	7
