Mass Spectrum: Dibutoxyacetic acid, butyl ester
Formula: C14H28O4
CAS: 6187-14-0
Molecular weight: 260
m/z	intensity
38	3
39	114
40	11
41	500
42	20
43	22
45	3
46	17
53	6
55	36
56	46
57	999
58	40
60	4
70	4
72	3
73	4
74	4
75	12
77	4
85	8
94	3
95	4
97	3
99	3
100	11
101	16
102	24
103	96
104	4
109	3
112	3
113	3
114	4
120	3
128	6
130	8
131	8
133	6
154	3
155	4
156	6
157	9
158	17
159	101
160	12
161	3
