Mass Spectrum: 1-(2-Pyrazinyl)butanone
Formula: C8H10N2O
CAS: 61892-81-7
Molecular weight: 150
m/z	intensity
37	8
38	16
39	101
40	26
41	245
42	86
43	999
44	55
50	8
51	56
52	358
53	199
54	20
55	146
56	8
57	4
60	2
63	2
64	2
65	5
66	11
67	8
68	7
69	15
70	50
71	382
72	21
73	3
74	3
75	4
76	2
77	7
78	11
79	572
80	812
81	127
82	8
86	4
88	2
93	6
94	199
95	20
105	4
106	3
107	320
108	279
109	19
117	2
118	2
119	3
121	22
122	354
123	38
131	24
132	3
133	11
134	2
135	140
136	13
149	41
150	144
151	17
