Mass Spectrum: Methyl-3-(2,2-dichlorovinyl)-2,2-dimethyl-(1-cyclopropane)carboxylate,c&t
Formula: C9H12Cl2O2
CAS: 61898-95-1
Molecular weight: 222
m/z	intensity
27	505
28	127
29	282
30	27
31	41
32	3
33	8
35	12
36	47
37	50
39	904
41	662
42	61
43	270
44	25
45	96
47	24
49	76
50	187
51	396
52	76
53	226
54	29
55	176
56	40
57	27
59	527
60	42
61	54
62	46
63	143
65	288
66	38
67	108
68	19
69	20
70	9
71	13
72	30
73	554
74	53
75	160
77	390
78	66
79	120
80	25
81	54
82	21
83	102
84	23
85	173
86	28
87	125
88	18
89	72
91	999
92	130
93	144
94	18
95	44
96	17
97	20
98	7
99	65
100	10
101	32
102	14
103	8
104	1
105	11
107	34
108	10
109	162
110	8
111	154
112	43
113	151
114	21
115	29
116	2
117	7
118	1
119	26
120	9
121	49
122	10
123	67
124	9
125	56
127	500
128	95
129	197
130	30
131	14
133	3
135	9
136	2
137	9
138	1
139	45
140	2
141	9
143	8
144	3
145	34
146	3
147	25
148	6
149	46
150	9
151	41
152	28
153	27
154	16
155	12
156	4
157	5
159	10
161	4
163	424
164	41
165	248
166	21
167	39
168	3
171	3
175	2
177	1
179	16
181	10
183	1
186	4
187	324
188	35
189	110
190	13
191	51
192	5
193	34
194	2
195	4
207	1
222	17
224	9
