Mass Spectrum: Benzenemethanol, 4-nitro-, acetate (ester)
Formula: C9H9NO4
CAS: 619-90-9
Molecular weight: 195
m/z	intensity
14	5
15	39
18	1
26	2
27	7
28	18
29	9
30	83
31	2
37	3
38	8
39	30
40	5
41	1
42	10
43	999
44	32
45	3
46	1
49	1
50	32
51	50
52	16
53	3
55	1
61	2
62	10
63	52
64	17
65	5
66	5
67	1
73	1
74	8
75	12
76	20
77	66
78	116
79	21
80	1
86	1
87	2
88	4
89	319
90	70
91	9
92	4
93	1
94	21
95	8
103	1
104	4
105	16
106	87
107	68
108	20
109	7
118	1
120	2
121	3
122	12
123	9
124	9
125	5
135	10
136	128
137	12
138	1
149	1
150	2
152	40
153	581
154	48
155	5
179	3
195	215
196	22
197	3
