Mass Spectrum: Urea, (trifluoromethyl)-
Formula: C2H3F3N2O
CAS: 61919-30-0
Molecular weight: 128
m/z	intensity
43	20
44	999
45	30
46	90
66	220
69	300
85	30
92	80
108	100
112	20
128	260
