Mass Spectrum: 4H-Furo[3,2-c]pyran-2(6H)-one, 4-(acetyloxy)-
Formula: C9H8O5
CAS: 6192-26-3
Molecular weight: 196
m/z	intensity
27	160
43	999
53	210
54	71
55	400
66	92
81	194
82	80
108	67
109	67
110	97
125	67
126	92
136	746
137	637
138	84
154	215
196	75
