Mass Spectrum: Phenol, 2,3,5,6-tetrachloro-, acetate
Formula: C8H4Cl4O2
CAS: 61925-90-4
Molecular weight: 272
m/z	intensity
36	25
38	0
39	0
41	33
42	28
43	999
47	9
48	5
53	6
54	5
56	26
57	18
58	8
59	6
60	13
61	23
64	1
65	8
66	0
67	1
69	5
70	2
71	11
72	8
73	20
75	0
82	1
83	8
84	9
85	1
87	2
89	1
91	3
94	1
95	12
96	32
97	15
98	8
104	1
106	4
107	34
108	4
109	18
110	7
111	2
117	4
118	1
119	4
124	1
128	0
130	1
131	72
132	13
133	35
134	2
135	8
136	0
141	9
143	7
145	5
148	7
158	1
164	3
166	15
167	6
168	20
169	6
170	4
178	6
179	2
181	5
187	3
191	1
194	24
195	1
196	36
198	6
200	5
201	38
203	39
204	4
205	23
211	3
213	9
215	3
216	0
230	306
231	35
232	393
233	29
234	176
235	12
236	29
237	8
272	101
273	8
274	88
275	7
276	57
277	4
278	9
