Mass Spectrum: Phenol, 2,3,4-trichloro-, acetate
Formula: C8H5Cl3O2
CAS: 61925-89-1
Molecular weight: 238
m/z	intensity
35	4
36	1
37	1
38	4
42	19
43	999
44	61
47	5
48	10
49	10
50	3
53	11
54	1
58	10
60	5
61	29
62	23
63	12
65	9
67	1
69	11
71	0
72	7
73	29
74	19
75	4
77	2
80	4
83	12
84	0
85	11
87	5
88	0
90	3
91	5
94	6
95	4
96	16
97	78
98	3
99	22
100	0
103	2
106	6
107	12
108	11
109	21
110	3
111	9
114	2
118	1
119	1
121	1
124	1
125	3
126	1
128	7
129	1
131	5
132	24
133	30
134	15
135	8
136	5
137	0
138	2
140	1
141	1
142	1
143	7
144	3
145	7
146	2
148	0
155	3
157	0
159	2
160	58
161	5
162	45
163	5
164	8
167	36
169	33
170	1
171	9
173	0
179	10
181	5
183	0
195	18
196	593
197	56
198	582
199	50
200	208
201	16
202	19
204	0
238	70
240	71
242	32
244	2
