Mass Spectrum: Phenol, 2,3,6-trichloro-, acetate
Formula: C8H5Cl3O2
CAS: 61925-87-9
Molecular weight: 238
m/z	intensity
35	7
36	9
37	13
39	2
40	56
42	42
43	999
44	66
47	4
48	17
49	7
50	7
52	5
53	8
57	61
60	7
61	47
62	49
63	9
64	3
65	6
66	6
67	10
68	0
69	2
70	8
71	10
72	20
73	33
74	23
75	18
78	2
81	8
82	0
83	7
85	15
87	23
89	2
90	1
93	2
94	3
95	1
96	15
97	91
98	15
99	32
100	1
105	1
106	10
107	30
108	9
109	22
110	4
111	5
115	1
117	0
119	3
120	3
122	1
123	0
125	2
126	3
129	0
130	0
131	5
132	36
133	9
134	22
135	7
136	2
143	9
144	6
145	2
146	4
150	1
155	2
157	1
159	2
160	46
161	4
162	36
164	12
166	2
167	36
168	1
169	37
170	4
171	13
172	0
177	0
179	2
181	8
182	0
183	5
188	2
195	8
196	539
197	56
198	545
199	45
200	199
202	23
203	3
220	1
238	132
240	118
242	32
244	8
