Mass Spectrum: Estr-5-ene-3,17-dione, cyclic 3-(1,2-ethanediyl acetal)
Formula: C20H28O3
CAS: 6193-98-2
Molecular weight: 316
m/z	intensity
77	226
79	365
86	366
91	419
98	86
99	999
100	115
105	246
117	75
288	52
289	26
290	10
316	200
317	60
318	18
