Mass Spectrum: Phosphinous amide, N-ethyl-P,P-diphenyl-N-(1-phenylethyl)-, (S)-
Formula: C22H24NP
CAS: 61937-85-7
Molecular weight: 333
m/z	intensity
105	999
108	330
109	250
134	460
183	280
185	270
214	140
228	70
262	130
333	30
