Mass Spectrum: Diazene, [1-(2,2-dimethylhydrazino)-2-methylpropyl]ethyl-
Formula: C8H20N4
CAS: 61940-94-1
Molecular weight: 172
m/z	intensity
27	112
28	180
29	135
30	101
39	37
40	11
41	91
42	146
43	213
44	360
45	101
46	112
54	9
55	92
56	54
57	34
58	54
59	999
60	54
68	7
70	44
71	21
72	79
73	55
85	18
86	8
99	33
100	16
113	9
114	27
115	561
116	47
