Mass Spectrum: .beta.-D-Glucopyranoside, methyl 2-(acetylamino)-2-deoxy-3,4,6-tri-O-methyl-
Formula: C12H23NO6
CAS: 6195-86-4
Molecular weight: 277
m/z	intensity
43	319
45	424
58	126
71	433
73	999
75	578
86	158
88	267
101	229
102	190
115	668
128	234
168	78
172	18
185	23
200	31
203	56
214	12
232	7
246	8
