Mass Spectrum: 1-Methylene-2-vinylcyclopentane
Formula: C8H12
CAS: 6196-78-7
Molecular weight: 108
m/z	intensity
39	340
41	240
51	120
52	66
53	140
54	75
65	130
66	72
67	230
77	470
78	150
79	830
80	220
91	410
93	999
105	32
107	76
108	240
