Mass Spectrum: 2,4-Pentanedione, 3,3-di-2-butenyl-
Formula: C13H20O2
CAS: 61979-91-7
Molecular weight: 208
m/z	intensity
26	2
27	44
29	70
30	1
31	1
38	1
39	50
40	6
41	54
42	3
43	999
44	21
45	10
50	2
51	10
52	5
53	33
54	4
55	123
56	5
57	41
58	2
59	2
61	0
62	0
63	2
64	0
65	18
66	6
67	34
68	4
69	16
70	1
71	6
72	0
73	0
77	38
78	7
79	35
80	5
81	64
82	6
83	11
84	2
85	2
89	0
91	34
92	5
93	111
94	17
95	55
96	7
97	13
98	2
99	0
103	2
104	0
105	17
106	3
107	30
108	7
109	63
110	11
111	188
112	29
113	3
115	1
116	0
117	2
118	0
119	10
120	1
121	30
122	4
123	52
124	19
125	20
126	3
131	1
133	10
134	1
135	8
136	18
137	32
138	4
139	4
145	0
147	11
148	3
149	3
150	7
151	29
152	3
153	145
154	15
155	1
163	0
164	61
165	157
166	27
167	2
175	0
190	1
193	0
208	11
209	2
