Mass Spectrum: Methanone, 1H-imidazol-4-ylphenyl-
Formula: C10H8N2O
CAS: 61985-32-8
Molecular weight: 172
m/z	intensity
26	13
27	28
28	65
29	5
30	1
31	1
36	4
37	22
38	40
39	110
40	119
41	29
42	9
43	7
44	55
45	1
48	2
49	20
50	155
51	292
52	164
53	19
54	6
55	10
56	7
57	14
58	4
59	3
60	4
61	12
62	19
63	46
64	10
65	6
66	9
67	111
68	62
69	8
70	3
71	4
72	39
73	17
74	57
75	29
76	63
77	518
78	999
79	79
80	5
81	7
82	18
83	3
84	2
85	3
86	6
87	4
88	6
89	53
90	28
91	4
92	1
93	3
94	6
95	566
96	34
97	3
98	5
99	2
100	3
101	3
102	4
103	3
104	14
105	431
106	38
107	4
108	2
109	8
110	10
111	3
114	3
115	4
116	23
117	49
118	8
119	1
123	4
126	11
127	2
128	3
129	1
130	2
140	3
141	2
142	2
143	9
144	47
145	272
146	30
147	2
148	1
149	2
155	11
156	2
157	2
158	2
170	4
171	86
172	628
173	78
174	7
