Mass Spectrum: 2,6-Dimethyl-6-trifluoroacetoxyoctane
Formula: C12H21F3O2
CAS: 61986-67-2
Molecular weight: 254
m/z	intensity
39	238
40	56
41	631
42	292
43	845
44	124
47	20
48	9
49	42
50	120
51	93
52	50
55	698
56	435
57	584
58	25
67	49
68	45
69	999
70	615
71	279
72	10
75	10
81	34
82	28
83	207
84	103
85	79
86	10
95	35
96	35
97	134
98	14
99	30
111	63
112	40
113	7
119	5
125	25
140	12
141	3
