Mass Spectrum: 1-(3H-Imidazol-4-yl)-2,2-dimethyl-propan-1-one
Formula: C8H12N2O
CAS: 61985-31-7
Molecular weight: 152
m/z	intensity
26	4
27	46
28	60
29	207
30	6
38	12
39	111
40	200
41	483
42	55
43	12
44	4
45	2
50	6
51	14
52	10
53	21
54	8
55	33
56	46
57	777
58	33
63	2
64	2
65	7
66	11
67	113
68	817
69	101
70	6
76	3
77	13
78	2
79	3
80	5
81	23
82	16
83	3
91	2
92	3
93	4
94	5
95	999
96	357
97	282
98	14
105	29
106	3
107	3
108	4
109	66
110	14
111	2
122	5
123	22
124	35
125	2
137	42
138	4
151	2
152	443
153	47
154	3
