Mass Spectrum: 1H-Imidazole-1-carboxamide, N,N-diethyl-
Formula: C8H13N3O
CAS: 61985-24-8
Molecular weight: 167
m/z	intensity
25	2
26	21
27	148
28	126
29	503
30	49
31	1
38	6
39	23
40	204
41	95
42	105
43	16
44	435
45	10
46	1
50	1
51	3
52	8
53	4
54	12
55	11
56	100
57	11
58	48
59	3
60	2
63	3
64	3
65	2
66	4
67	22
68	102
69	15
70	34
71	12
72	999
73	48
74	4
77	2
78	1
79	2
80	2
81	30
82	4
83	3
84	6
85	2
91	2
92	4
93	2
94	3
95	31
96	5
97	3
98	3
99	3
100	957
101	67
102	5
110	2
111	2
112	4
113	1
121	5
122	1
123	2
124	2
125	1
126	2
136	4
137	1
138	2
139	2
140	2
141	3
142	3
143	2
150	4
151	1
156	3
157	2
167	122
168	12
169	2
