Mass Spectrum: 1H-Imidazole, 2-octanoyl-
Formula: C11H18N2O
CAS: 61985-26-0
Molecular weight: 194
m/z	intensity
26	4
27	59
28	17
29	69
30	3
38	2
39	49
40	83
41	159
42	75
43	72
44	2
50	1
51	4
52	7
53	16
54	22
55	82
56	11
57	61
58	4
65	6
66	8
67	60
68	532
69	375
70	17
71	1
77	3
78	3
79	3
80	4
81	46
82	371
83	26
84	3
93	14
94	10
95	472
96	189
97	22
98	58
99	4
105	0
106	3
107	9
108	6
109	101
110	999
111	153
112	9
119	5
120	0
121	9
122	6
123	282
124	68
125	6
126	2
127	1
132	0
133	4
134	1
135	17
136	3
137	167
138	90
139	7
147	3
148	0
149	6
150	7
151	36
152	11
153	2
154	0
161	2
163	2
165	30
166	28
167	4
177	12
178	2
179	11
180	2
193	14
194	176
195	23
196	2
