Mass Spectrum: Methanone, cyclohexyl-1H-imidazol-4-yl-
Formula: C10H14N2O
CAS: 61985-29-3
Molecular weight: 178
m/z	intensity
26	3
27	38
29	27
30	3
31	1
36	2
37	3
38	8
39	80
40	101
41	208
42	20
43	24
44	11
45	3
50	14
51	26
52	25
53	43
54	43
55	333
56	28
57	16
58	7
59	1
60	5
61	2
62	3
63	4
64	2
65	12
66	13
67	145
68	305
69	120
70	8
71	2
73	20
74	10
75	3
76	5
77	29
78	91
79	23
80	13
81	46
82	175
83	116
84	10
85	3
86	2
87	3
89	2
91	6
92	4
93	9
94	15
95	999
96	132
97	78
98	10
99	5
100	1
103	2
104	3
105	8
106	6
107	9
108	19
109	12
110	595
111	56
112	5
113	2
115	1
116	2
117	3
118	3
119	6
120	3
121	16
122	14
123	499
124	53
125	5
127	2
128	8
131	4
132	9
133	5
134	5
135	64
136	22
137	74
138	7
139	2
145	4
147	3
148	3
149	30
150	26
151	6
152	3
157	3
158	3
159	7
160	4
161	16
162	3
163	23
164	4
176	5
177	31
178	281
179	35
180	6
