Mass Spectrum: 1-(3H-Imidazol-4-yl)-ethanone
Formula: C5H6N2O
CAS: 61985-25-9
Molecular weight: 110
m/z	intensity
25	3
26	12
27	18
28	82
29	6
30	1
31	0
33	0
34	0
36	2
37	8
38	20
39	38
40	191
41	66
42	20
43	115
44	4
45	0
49	1
50	3
51	8
52	20
53	14
54	19
55	7
56	1
57	1
58	0
62	0
63	1
64	2
65	4
66	11
67	193
68	165
69	7
70	1
71	1
76	0
77	1
78	0
79	1
80	0
81	12
82	7
83	1
84	0
85	0
91	0
92	0
93	1
94	3
95	999
96	57
97	3
104	0
105	0
107	0
108	1
109	1
110	576
111	40
112	2
113	0
