Mass Spectrum: Aniline
Formula: C6H7N
CAS: 62-53-3
Molecular weight: 93
m/z	intensity
15	1
25	1
26	6
27	10
28	21
29	1
30	3
31	1
33	1
37	22
38	46
39	127
40	45
41	45
42	13
43	4
48	1
49	7
50	42
51	47
52	57
53	17
54	46
55	2
60	4
61	19
62	30
63	56
64	29
65	200
66	400
67	48
68	2
73	4
74	13
75	7
76	12
77	12
78	20
79	1
86	1
87	1
88	2
89	2
90	2
91	10
92	121
93	999
94	72
95	2
