Mass Spectrum: Cevadene
Formula: C32H49NO9
CAS: 62-59-9
Molecular weight: 591
m/z	intensity
41	35
42	14
43	73
44	19
45	17
53	16
54	21
55	241
56	50
57	40
67	39
68	32
69	72
70	32
71	41
73	20
77	22
79	46
80	17
81	64
82	130
83	341
84	53
85	35
86	15
87	16
91	39
93	24
94	19
95	37
96	65
97	60
98	607
99	63
100	53
101	17
103	14
105	26
107	30
108	17
109	35
110	112
111	397
112	999
113	88
114	12
115	14
117	15
119	18
121	23
122	13
123	26
124	52
125	31
126	23
127	12
128	97
129	27
131	23
133	18
134	9
135	16
136	20
137	24
138	29
139	12
140	58
141	18
142	39
143	13
145	12
147	13
148	12
149	11
150	20
151	9
152	35
153	28
154	98
155	22
156	25
157	12
159	13
162	14
164	15
165	13
166	14
167	10
168	9
170	9
171	12
177	11
178	26
179	11
180	16
181	9
182	13
191	15
196	37
197	9
198	17
206	9
209	9
220	13
246	10
247	46
248	19
285	53
287	18
298	9
299	10
328	41
330	16
420	10
434	13
446	10
448	47
449	11
454	15
456	23
464	9
472	21
473	17
474	19
490	18
491	30
492	24
508	23
509	10
530	12
548	80
549	26
556	25
557	10
572	19
573	56
574	29
591	57
592	19
