Mass Spectrum: Propanediamide, 2-amino-
Formula: C3H7N3O2
CAS: 62009-47-6
Molecular weight: 117
m/z	intensity
40	151
41	13
42	27
43	183
44	894
45	122
54	2
55	21
56	7
57	534
58	24
73	509
74	999
75	43
99	2
100	3
101	2
117	14
118	6
