Mass Spectrum: N-(3-Hydroxypropyl)-2-pyrrolidone
Formula: C7H13NO2
CAS: 62012-15-1
Molecular weight: 143
m/z	intensity
14	4
15	29
16	1
17	8
18	30
25	1
26	22
27	87
28	153
29	33
30	62
31	90
32	6
33	1
34	2
37	3
38	6
39	69
40	20
41	284
42	144
43	107
44	92
45	5
48	1
50	1
51	2
52	4
53	6
54	23
55	36
56	67
57	39
58	13
59	5
60	1
66	2
67	7
68	64
69	235
70	618
71	57
72	4
73	2
75	3
77	1
79	1
80	5
81	3
82	25
83	8
84	58
85	34
86	58
87	4
88	1
91	1
94	2
95	1
96	13
97	22
98	999
99	583
100	34
101	2
108	2
109	1
110	22
111	3
112	109
113	64
114	6
115	3
123	1
124	15
125	218
126	50
127	5
139	1
141	3
142	4
143	92
144	9
