Mass Spectrum: Heptacosane, 1-chloro-
Formula: C27H55Cl
CAS: 62016-79-9
Molecular weight: 414
m/z	intensity
27	40
29	109
30	4
31	3
38	1
39	26
41	266
42	71
43	691
44	23
45	0
49	1
50	1
51	0
52	1
53	11
54	27
55	427
56	129
57	999
58	42
59	2
63	6
65	3
66	3
67	43
68	39
69	286
70	111
71	571
72	32
73	2
75	1
76	1
77	6
78	1
79	4
80	1
81	25
82	45
83	191
84	59
85	385
86	25
87	1
89	1
90	1
91	80
92	5
93	29
94	1
95	10
96	25
97	146
98	41
99	119
100	9
104	7
105	29
106	5
107	10
108	1
109	7
110	9
111	70
112	28
113	78
114	7
115	1
117	1
118	2
119	30
120	2
121	9
122	1
123	5
124	10
125	30
126	19
127	45
128	4
129	1
131	3
132	1
133	28
134	3
135	6
136	1
137	3
138	5
139	12
140	14
141	33
142	4
144	1
145	1
146	2
147	21
148	3
149	5
150	1
151	2
152	4
153	8
154	16
155	28
156	3
158	1
159	1
160	2
161	15
162	2
163	5
164	2
166	1
167	4
168	14
169	17
170	1
172	1
173	1
174	2
175	11
176	2
177	4
178	1
180	1
181	4
182	10
183	17
187	2
188	3
189	9
190	2
191	4
192	1
194	2
195	2
196	11
197	10
198	2
201	2
202	2
203	10
204	2
205	3
206	1
208	2
209	2
210	8
211	10
212	1
215	2
216	3
217	9
218	2
219	2
222	1
223	1
224	5
225	5
226	2
229	1
230	4
231	8
232	2
233	2
237	1
238	4
239	5
240	2
244	3
245	5
246	2
247	2
251	1
252	3
253	4
254	2
258	3
259	5
260	2
261	2
262	1
265	1
266	2
267	5
268	1
272	3
273	7
274	2
275	2
280	2
281	3
282	1
286	2
287	5
288	2
289	2
294	1
295	3
296	1
300	3
301	5
302	2
303	2
308	1
309	2
310	1
314	2
315	5
316	2
317	2
322	1
323	2
328	2
329	4
330	2
331	1
336	1
337	1
342	2
343	6
344	1
345	2
350	1
356	2
357	4
358	2
359	1
370	1
371	4
372	2
373	2
378	2
379	1
380	1
385	2
386	1
387	1
394	2
414	28
415	9
416	10
417	2
418	1
