Mass Spectrum: Vinyl(allylamino)bis(isopropylideneaminooxy)silane
Formula: C11H21N3O2Si
CAS: 62025-27-8
Molecular weight: 255
m/z	intensity
30	168
38	71
39	30
40	111
41	8
42	208
54	37
55	39
56	999
57	171
58	68
126	69
127	7
128	85
129	10
130	58
144	410
145	59
146	41
183	62
184	10
199	431
200	78
201	60
255	11
