Mass Spectrum: Methyl 2-methyl-3-cyclopropylpropanoate
Formula: C8H14O2
CAS: 62021-35-6
Molecular weight: 142
m/z	intensity
41	590
42	120
43	140
44	40
53	120
55	940
56	200
57	420
58	60
59	320
60	30
67	160
68	80
69	140
71	80
72	50
73	70
74	90
82	160
83	260
85	40
87	110
88	999
89	60
95	60
99	100
100	60
101	220
102	60
110	60
111	110
113	40
114	30
115	20
127	100
142	120
143	10
