Mass Spectrum: 4-Stilbenol, 4'-(benzyloxy)-.alpha.,.alpha.'-diethyl-
Formula: C25H26O2
CAS: 6202-26-2
Molecular weight: 358
m/z	intensity
26	0
27	9
29	8
39	29
40	0
41	27
43	15
50	2
51	13
52	2
53	8
55	46
57	5
62	0
63	12
64	3
65	90
66	4
67	3
69	7
75	1
76	1
77	41
78	6
79	16
80	0
81	4
83	1
89	15
90	6
91	999
92	77
93	5
94	2
95	4
101	1
102	3
103	15
104	1
105	28
106	0
107	103
108	7
109	0
115	35
116	8
117	13
118	3
119	23
120	3
121	53
122	3
126	0
127	14
128	14
129	10
130	7
131	26
132	6
133	49
134	13
135	14
139	3
141	9
142	1
143	0
144	11
145	57
146	29
147	17
148	1
151	4
152	21
153	9
154	1
155	6
157	11
158	12
159	43
160	12
161	9
163	1
164	0
165	36
166	12
167	8
168	2
169	4
170	1
171	5
172	1
173	45
174	37
175	3
176	2
177	9
178	13
179	9
180	1
181	50
182	20
183	31
184	5
185	4
186	3
189	4
190	1
191	6
192	1
193	5
194	22
195	35
196	12
197	27
198	3
199	3
202	1
203	0
205	1
206	0
207	13
208	8
209	24
210	39
211	94
212	14
213	2
219	2
220	2
221	6
222	1
223	32
224	9
225	36
226	6
234	1
236	0
237	18
238	115
239	124
240	19
241	0
249	3
251	3
252	3
253	1
265	8
266	7
267	810
268	168
269	17
317	0
329	7
330	0
343	1
356	2
357	2
358	831
359	219
360	32
