Mass Spectrum: Dicyclopropa[cd,gh]pentalene, octahydro-1-(2-methyl-1-propenylidene)-
Formula: C12H14
CAS: 62025-03-0
Molecular weight: 158
m/z	intensity
27	140
28	50
39	250
41	110
43	50
50	70
51	190
52	80
53	90
63	110
64	50
65	160
77	290
78	130
79	600
80	999
81	60
91	280
92	50
114	290
115	130
116	70
127	100
128	600
129	150
141	120
142	150
143	320
157	30
158	310
159	40
