Mass Spectrum: Methyl methanesulfonylacetate
Formula: C4H8O4S
CAS: 62020-09-1
Molecular weight: 152
m/z	intensity
13	3
14	26
15	233
16	3
17	1
26	6
27	29
29	165
30	13
31	48
32	9
33	13
34	8
35	3
41	18
42	999
43	462
44	28
45	285
46	31
47	15
48	55
49	13
50	5
51	1
55	3
56	2
57	8
58	16
59	58
60	3
61	10
62	13
63	115
64	24
65	35
66	1
67	1
72	1
73	146
74	460
75	16
76	2
77	6
78	23
79	696
80	31
81	37
82	1
88	10
89	3
90	1
93	1
94	30
95	12
96	1
105	24
107	6
109	10
110	8
111	15
120	14
121	452
122	61
123	24
124	6
137	28
138	1
139	1
152	52
153	4
154	2
