Mass Spectrum: Methyl 3-cyclopropylpropanoate
Formula: C7H12O2
CAS: 62021-34-5
Molecular weight: 128
m/z	intensity
41	740
42	120
43	660
44	60
53	120
54	160
55	460
56	50
57	50
58	60
59	340
60	50
67	110
68	480
69	290
71	60
72	30
73	40
74	999
75	50
80	80
84	70
87	190
88	40
96	100
97	200
99	60
100	60
113	180
114	30
128	80
129	6
