Mass Spectrum: Dihydrothiophene, 3-methylene-2-one
Formula: C5H6OS
CAS: 62033-73-2
Molecular weight: 114
m/z	intensity
27	775
29	100
39	679
40	704
41	204
45	349
46	402
47	170
53	349
55	345
58	250
59	96
66	999
67	87
68	319
71	89
72	63
73	78
81	72
85	136
86	172
87	34
91	54
113	72
114	850
115	73
116	44
