Mass Spectrum: Methyl 5-norbornene-2-carboxylate
Formula: C9H12O2
CAS: 6203-08-3
Molecular weight: 152
m/z	intensity
33	0
37	2
38	9
39	87
40	43
41	31
42	3
43	5
44	1
45	5
50	8
51	22
52	9
53	14
55	112
56	2
57	1
59	14
61	0
62	3
63	12
65	85
66	999
67	52
68	1
69	1
71	0
74	2
77	45
78	19
79	14
80	1
81	1
85	0
87	82
88	2
89	2
91	67
92	20
93	39
94	3
98	1
105	0
109	0
111	3
119	2
120	3
121	37
122	3
137	1
151	0
152	41
153	4
