Mass Spectrum: Dimethyl (1alpha,2beta,3alpha,4beta,5alpha)-3-cyanotricyclo(3.2.2.0(2,4))nona-6,8-diene-6,7-dicarboxylate
Formula: C14H13NO4
CAS: 6204-44-0
Molecular weight: 259
m/z	intensity
15	197
16	2
26	3
27	10
28	7
29	3
30	3
31	4
32	2
37	5
38	15
39	63
40	5
41	7
42	25
43	4
44	5
45	9
49	1
50	30
51	52
52	16
53	15
54	3
55	11
56	2
57	7
58	2
59	785
60	17
61	9
62	26
63	66
64	33
65	30
66	10
67	1
68	2
69	3
70	21
71	8
72	30
73	2
74	16
75	29
76	34
77	111
78	20
79	9
80	5
81	1
82	1
83	1
84	2
85	4
86	8
87	16
88	32
89	65
90	37
91	27
92	30
93	5
94	1
95	1
96	1
98	2
99	4
100	5
101	27
102	39
103	26
104	13
105	25
106	4
107	2
108	1
109	3
110	1
111	6
112	4
113	72
114	133
115	999
116	174
117	27
118	12
119	20
120	9
121	3
125	1
126	3
127	46
128	121
129	366
130	86
131	22
132	9
133	29
134	3
135	16
136	2
138	4
139	23
140	410
141	241
142	144
143	101
144	21
145	45
146	19
147	11
148	6
149	50
150	14
151	2
152	17
153	8
154	93
155	113
156	252
157	120
158	23
159	15
160	5
161	23
162	5
163	112
164	11
165	3
166	4
167	102
168	334
169	293
170	73
171	13
172	16
173	46
174	50
175	10
176	4
177	1
178	2
179	3
180	1
181	1
182	61
183	87
184	183
185	44
186	12
187	6
188	2
189	8
190	1
191	5
193	1
194	6
195	11
196	36
197	9
198	13
199	72
200	268
201	44
202	5
203	1
204	1
206	2
207	6
208	1
212	41
213	9
214	62
215	91
216	13
217	2
219	4
226	80
227	543
228	495
229	70
230	8
231	1
233	1
258	1
259	2
260	1
