Mass Spectrum: Cholestan-2-amine, N,N-dimethyl-, (2.alpha.)-
Formula: C29H53N
CAS: 62057-64-1
Molecular weight: 415
m/z	intensity
41	20
42	10
43	40
44	20
46	10
55	30
56	10
57	30
58	30
67	10
69	20
70	30
71	90
72	10
79	10
81	20
83	10
84	999
85	70
91	10
93	10
95	20
98	100
99	90
100	10
107	10
109	10
111	10
124	10
139	20
152	20
344	30
345	10
400	30
401	10
413	10
414	30
415	650
416	220
417	30
