Mass Spectrum: 1,4:5,8-Dimethanonaphthalen-2-ol, 3,5,6,7,8,9,9-heptachloro-1,2,3,4,4a,5,8,8a-octahydro-, (1.alpha.,2.alpha.,3.beta.,4.alpha.,4a.beta.,5.alpha.,8.alpha.,8.beta.)-
Formula: C12H9Cl7O
CAS: 62059-42-1
Molecular weight: 414
m/z	intensity
12	3
14	34
15	90
17	142
18	313
19	10
27	578
29	903
31	428
32	5
35	47
36	61
37	30
39	738
40	131
41	238
42	167
43	133
44	18
45	4
47	26
49	144
51	350
53	363
55	353
57	151
58	5
61	76
62	62
63	114
66	999
67	110
68	21
69	26
70	14
71	8
73	113
75	255
77	394
79	689
80	75
81	118
83	263
84	43
85	62
86	51
87	49
89	58
91	103
92	10
93	13
94	14
95	56
96	28
97	48
98	39
99	56
101	86
102	17
103	24
104	9
107	455
108	69
109	90
110	26
111	34
113	86
115	77
117	61
119	51
120	19
121	34
122	14
123	25
125	42
126	21
127	15
128	7
130	26
131	18
132	18
133	29
134	10
135	22
136	13
137	18
138	11
139	24
141	65
143	142
145	62
146	9
147	19
148	9
149	21
150	7
151	7
152	1
153	2
154	1
155	6
156	2
157	11
158	4
159	12
160	21
161	12
162	11
163	6
165	17
167	20
168	5
169	14
170	16
171	10
172	12
173	22
174	6
175	10
177	16
179	19
180	4
181	13
182	6
183	18
184	6
185	10
186	4
187	2
188	1
191	21
193	25
194	9
195	14
196	22
197	7
198	11
199	3
200	2
201	8
202	4
203	11
204	10
205	10
206	10
207	14
208	6
209	14
210	4
211	6
212	1
213	2
214	5
215	3
216	7
217	13
218	5
219	11
220	5
221	4
222	2
223	1
225	2
226	3
227	6
228	5
229	7
230	21
231	9
232	19
233	7
235	40
237	54
238	7
239	32
240	5
241	13
242	4
243	15
244	6
245	12
246	4
247	4
248	2
249	1
250	1
251	3
252	1
253	4
254	2
255	3
256	2
257	1
261	15
263	25
264	4
265	27
266	7
267	21
268	5
269	9
270	6
271	6
272	9
273	5
274	9
275	2
276	6
277	4
278	4
279	7
280	2
281	6
282	1
283	2
289	1
290	1
291	1
292	1
293	1
300	4
301	6
302	7
303	8
304	4
305	4
306	2
307	5
309	5
311	2
313	1
315	1
317	1
325	1
327	1
329	1
343	3
344	1
345	4
346	1
347	2
363	1
365	1
379	13
381	27
382	4
383	20
384	2
385	8
386	1
387	1
416	1
418	1
