Mass Spectrum: Alanine, 2-methyl-N-(1,4,5,6-tetrahydro-4,6-dioxo-1,3,5-triazin-2-yl)-
Formula: C7H10N4O4
CAS: 62059-50-1
Molecular weight: 214
m/z	intensity
12	23
13	31
15	236
16	98
17	130
18	330
19	4
26	36
27	112
28	216
29	254
30	52
31	19
32	4
33	1
35	6
36	15
37	12
38	28
39	149
40	72
41	283
42	713
43	999
44	785
45	24
46	3
47	2
48	3
49	3
50	4
51	6
52	11
53	21
54	33
56	168
57	106
58	22
59	4
60	5
61	10
62	13
63	8
65	10
67	81
69	404
70	169
71	9
72	3
73	6
74	3
75	3
76	1
77	3
79	6
80	4
81	6
82	42
83	18
84	31
86	161
87	19
88	2
89	1
90	1
91	3
92	1
93	2
94	2
95	5
96	20
97	99
98	13
99	14
100	1
103	1
105	1
107	3
108	3
109	12
110	15
111	6
112	14
113	3
115	1
119	1
120	1
121	2
122	1
124	101
125	36
127	38
129	704
130	39
131	5
133	6
135	5
137	4
138	57
139	4
140	11
141	2
142	1
149	6
152	28
153	211
154	17
155	5
161	2
162	1
163	2
167	40
168	49
169	6
170	1
176	2
177	1
178	3
179	1
180	1
181	14
182	1
196	78
197	11
198	1
