Mass Spectrum: Methanesulfonamide, 1,1,1-trifluoro-N-methyl-N-[2-methyl-4-(phenylsulfonyl)phenyl]-
Formula: C15H14F3NO4S2
CAS: 62059-53-4
Molecular weight: 393
m/z	intensity
12	5
14	7
15	79
16	22
17	61
18	188
19	1
20	6
26	16
27	136
28	159
29	17
30	46
31	13
32	19
33	3
34	7
36	1
37	6
38	33
39	270
40	37
41	63
42	108
43	22
44	24
45	46
46	2
47	7
48	34
50	210
51	840
52	157
53	96
54	30
55	23
56	15
57	3
58	7
59	4
60	3
61	5
62	26
63	135
64	97
65	242
66	97
67	64
69	379
70	10
71	7
72	1
73	2
74	30
75	46
76	115
77	999
78	214
79	60
80	33
81	41
82	8
83	7
84	6
85	2
86	3
87	5
89	174
90	128
91	281
92	90
93	25
94	9
95	7
97	289
98	22
99	13
100	1
101	2
102	22
103	21
104	304
105	33
106	69
107	231
108	26
109	73
110	10
111	5
113	2
114	2
115	17
116	21
117	146
118	492
119	764
120	72
121	9
122	6
123	7
125	830
126	64
127	44
128	13
129	4
132	2
133	9
134	96
135	39
136	11
137	3
138	2
139	8
140	4
141	25
142	3
143	2
147	1
148	1
149	2
150	5
151	14
152	37
153	17
154	7
155	2
163	1
164	3
165	29
166	18
167	34
168	9
169	3
170	4
171	1
178	1
180	9
181	4
182	3
183	2
184	4
185	1
193	1
194	8
195	2
196	10
197	2
228	1
260	867
261	128
262	47
263	5
268	6
274	5
300	1
310	4
393	76
394	12
395	6
