Mass Spectrum: Acetic acid, (2,4,5-trichlorophenoxy)-, 2-(2-methylpropoxy)ethyl ester
Formula: C14H17Cl3O4
CAS: 62059-40-9
Molecular weight: 354
m/z	intensity
12	6
13	6
14	53
15	126
16	16
17	18
18	45
19	22
25	3
26	38
27	360
28	215
29	866
30	63
31	136
32	2
35	10
36	15
37	18
38	16
39	134
41	849
42	356
43	437
44	150
45	348
46	7
47	6
48	2
49	11
50	18
51	9
52	2
53	20
54	5
55	91
56	590
57	999
58	96
59	29
60	11
61	35
62	55
63	22
64	1
65	4
67	3
68	1
69	10
70	5
71	39
72	36
73	81
74	76
75	33
76	3
77	4
82	3
83	19
84	28
85	218
86	225
87	88
88	6
89	11
90	1
91	1
94	2
95	3
96	16
97	86
98	12
99	35
100	95
101	53
102	7
103	45
104	3
105	6
107	31
108	30
109	86
110	20
111	47
112	8
113	13
114	8
115	5
117	5
118	3
119	5
120	3
121	3
122	1
123	2
124	1
125	2
126	2
127	2
128	2
129	1
130	1
131	7
132	15
133	14
134	10
135	7
136	2
137	1
139	4
140	6
141	9
143	62
144	45
145	130
146	76
147	50
148	34
149	12
150	5
151	2
157	1
158	1
159	3
160	10
161	5
162	13
163	7
164	6
165	3
166	2
167	48
168	4
169	45
170	3
171	14
172	3
173	9
174	5
175	22
176	5
177	14
178	4
179	81
180	10
181	88
182	9
183	36
184	3
185	7
189	2
190	3
191	4
192	6
193	4
194	5
195	20
196	81
197	24
198	75
199	11
200	24
201	8
202	3
203	5
204	1
205	6
206	1
207	9
209	110
210	13
211	97
212	12
213	31
214	4
215	4
218	1
219	7
220	6
221	5
222	4
223	2
225	1
233	1
235	1
236	1
238	1
241	1
243	1
245	3
246	13
247	11
248	9
249	6
250	8
251	2
252	4
254	110
255	11
256	100
257	9
258	32
259	3
260	3
261	1
280	1
281	29
282	4
283	27
284	4
285	8
286	1
295	2
297	2
298	2
299	1
300	2
312	1
314	1
320	1
354	29
355	5
356	27
357	5
358	8
359	1
360	1
