Mass Spectrum: 4-Phenylsemicarbazone of 2-phenyl-4-formyl-2H-1,2,3-triazole
Formula: C16H14N6O
CAS: 6207-32-5
Molecular weight: 306
m/z	intensity
41	67
42	62
43	169
44	999
45	44
50	104
51	285
52	97
53	86
54	34
55	20
60	47
63	80
64	99
65	41
70	20
74	29
75	20
77	626
78	56
82	14
89	27
91	436
92	46
93	18
102	21
103	27
104	35
105	129
106	19
107	34
110	21
116	18
118	15
119	17
122	18
131	19
145	22
157	23
158	25
170	89
186	28
187	141
213	14
214	54
230	60
231	16
306	38
