Mass Spectrum: Inositol, 1-deoxy-
Formula: C6H12O5
CAS: 62076-18-0
Molecular weight: 164
m/z	intensity
39	25
40	8
41	50
42	52
43	151
44	50
45	85
46	5
47	27
51	6
53	26
54	24
55	48
56	54
57	157
58	66
59	8
60	405
61	59
62	7
68	7
69	55
70	16
71	253
72	65
73	999
74	135
75	16
76	6
78	5
81	34
82	70
83	16
84	25
85	15
86	107
87	145
88	10
89	46
90	8
91	6
97	9
99	92
100	46
101	10
102	59
103	8
110	42
111	8
115	9
117	5
118	3
127	7
128	147
129	9
146	16
