Mass Spectrum: Ethanone, 2-[4-(4-methoxyphenyl)-1,3-dithiol-2-ylidene]-1-phenyl-
Formula: C18H14O2S2
CAS: 6208-66-8
Molecular weight: 326
m/z	intensity
33	1
34	2
36	0
37	5
38	21
39	90
40	13
41	11
42	3
43	7
44	14
45	105
46	3
47	4
48	0
50	139
51	449
52	26
53	19
54	2
55	6
57	34
58	10
59	3
60	1
61	8
62	44
63	138
64	21
65	14
66	4
67	4
69	79
70	13
71	15
73	7
74	38
75	52
76	77
77	999
78	73
79	10
80	2
81	9
82	20
83	5
85	193
86	16
87	22
89	315
90	40
91	24
92	8
93	39
94	25
95	24
96	6
97	3
98	4
99	3
101	17
102	33
103	18
105	311
106	29
107	7
108	29
109	7
110	17
111	3
112	2
113	5
114	9
115	6
117	130
118	14
119	22
120	36
121	199
122	26
123	11
124	5
125	2
126	3
127	4
128	4
129	2
130	4
131	14
132	215
133	39
134	97
135	19
136	18
137	4
138	1
139	5
140	1
141	2
142	3
143	1
144	2
145	29
146	8
147	9
148	21
149	311
150	45
151	83
152	13
153	9
154	1
155	1
156	2
157	6
158	3
159	1
160	1
161	4
162	12
163	26
164	213
165	43
166	46
167	7
168	3
169	0
170	0
171	1
173	10
174	2
175	2
177	88
178	30
179	10
180	3
181	2
182	0
183	1
184	0
185	0
187	1
188	20
189	9
190	36
191	7
192	4
193	11
194	8
195	3
196	3
197	1
201	0
202	0
204	0
205	6
206	42
207	7
208	5
209	2
210	1
216	0
217	0
218	6
219	4
220	6
221	12
222	5
223	2
224	0
225	0
230	0
231	2
232	1
234	27
235	3
236	2
237	3
238	0
239	0
240	0
245	0
246	2
247	7
249	300
250	47
251	31
252	5
253	2
254	0
255	1
256	0
260	2
261	4
262	1
263	0
264	0
265	1
266	1
267	0
269	0
277	0
278	1
281	0
282	0
283	5
284	1
285	0
293	26
294	5
295	3
296	0
297	2
298	11
299	2
300	1
308	0
309	0
311	4
312	1
320	0
321	0
322	2
323	4
326	309
327	67
328	32
329	5
330	1
