Mass Spectrum: Benzaldehyde, 4-nitro-, benzyl(phenyl)hydrazone
Formula: C20H17N3O2
CAS: 62084-77-9
Molecular weight: 331
m/z	intensity
37	0
39	35
41	12
42	0
43	1
44	0
46	3
50	33
51	70
52	8
53	1
54	0
55	0
57	0
62	14
63	65
64	28
65	136
66	22
67	1
69	0
71	0
74	10
75	18
77	304
78	25
79	4
80	0
82	0
84	0
86	1
87	5
89	72
91	999
92	63
93	5
94	0
97	0
99	0
100	1
102	10
103	10
104	31
105	28
106	3
107	0
113	0
114	4
115	9
116	3
117	3
118	3
119	0
125	0
126	2
127	3
128	7
129	3
130	0
139	31
140	16
141	3
142	0
143	1
144	1
148	0
149	0
150	1
151	3
152	11
153	8
154	9
155	4
156	0
162	0
163	4
164	9
165	53
166	76
167	75
168	24
169	4
170	0
171	0
176	0
177	1
178	4
179	5
180	27
181	18
182	14
183	5
184	0
190	0
191	2
192	35
193	131
194	256
195	40
196	2
207	0
208	1
209	3
210	13
211	1
212	0
223	11
224	2
225	0
226	1
237	0
238	3
240	174
241	23
242	2
285	0
286	0
301	1
302	0
315	0
326	0
327	1
328	1
331	142
332	28
333	2
