Mass Spectrum: Ethanimidamide, N,N'-diphenyl-
Formula: C14H14N2
CAS: 621-09-0
Molecular weight: 210
m/z	intensity
27	4
37	1
38	4
39	22
42	11
49	0
50	18
51	137
52	13
53	0
54	0
61	0
62	2
63	8
64	7
65	35
66	4
67	0
74	2
75	6
76	15
77	518
78	42
79	3
80	0
87	0
89	3
90	3
91	4
92	9
93	44
94	3
95	0
97	1
102	0
103	1
104	4
105	16
106	3
114	0
115	2
116	1
117	32
118	999
119	87
120	4
127	0
130	0
131	1
132	1
133	8
134	1
139	1
140	1
141	1
142	0
143	0
145	0
152	0
153	1
154	0
158	0
165	0
166	3
167	14
168	5
169	4
170	0
173	0
180	0
182	0
183	1
184	0
193	1
196	0
197	1
201	0
205	0
206	0
207	0
208	0
209	111
210	162
211	25
212	2
