Mass Spectrum: Benzenamine, N-methyl-4-(phenylazo)-
Formula: C13H13N3
CAS: 621-90-9
Molecular weight: 211
m/z	intensity
15	4
17	9
18	51
26	2
27	10
28	33
29	1
30	9
31	1
32	3
37	4
38	10
39	38
40	4
41	9
42	8
43	1
50	23
51	75
52	22
53	11
54	7
55	4
56	2
59	1
61	2
62	5
63	21
64	28
65	110
66	18
67	5
68	3
74	5
75	6
76	17
77	344
78	104
79	186
80	21
81	1
89	2
90	20
91	31
92	23
93	19
94	2
102	2
103	1
104	32
105	68
106	999
107	86
108	4
115	9
116	1
119	9
120	10
121	3
122	6
127	1
128	2
129	1
132	4
133	1
134	214
135	18
139	2
140	1
141	8
142	1
151	2
152	10
153	7
154	5
155	1
165	1
166	2
167	8
168	3
180	2
181	2
182	9
183	2
197	8
198	1
209	7
210	23
211	580
212	88
213	6
