Mass Spectrum: Carbonic acid, bis(4-methylphenyl) ester
Formula: C15H14O3
CAS: 621-02-3
Molecular weight: 242
m/z	intensity
26	3
27	26
28	9
29	1
37	1
38	6
39	60
40	5
41	19
42	1
43	1
44	4
50	19
51	55
52	30
53	30
54	2
55	6
61	1
62	7
63	34
64	10
65	199
66	10
69	1
74	3
75	3
76	3
77	127
78	61
79	63
80	7
81	1
82	1
86	1
87	1
89	43
90	28
91	999
92	114
93	5
104	1
105	36
106	8
107	113
108	96
109	7
115	9
116	3
117	1
119	2
120	2
121	13
127	4
128	11
129	20
130	3
131	1
135	6
139	1
140	1
141	9
142	8
143	7
144	1
145	1
151	1
152	6
153	20
154	32
155	144
156	18
157	4
158	2
165	10
166	4
167	3
168	10
169	47
170	48
171	7
172	1
178	1
179	5
180	1
181	11
182	17
183	57
184	8
185	1
195	5
197	166
198	717
199	108
200	9
240	5
241	1
242	770
243	126
244	13
245	1
