Mass Spectrum: Thiourea, N,N'-bis(4-methylphenyl)-
Formula: C15H16N2S
CAS: 621-01-2
Molecular weight: 256
m/z	intensity
15	2
26	5
27	25
28	3
30	5
32	5
33	3
34	9
37	5
38	12
39	86
40	9
41	26
42	5
43	6
44	6
45	19
49	3
50	29
51	60
52	32
53	31
54	9
55	7
56	3
57	8
58	2
59	2
60	3
61	7
62	15
63	57
64	19
65	150
66	14
67	6
68	2
69	7
70	7
71	4
72	2
73	2
74	12
75	9
76	9
77	114
78	43
79	79
80	18
81	6
82	3
83	4
84	2
85	3
86	4
87	4
88	4
89	56
90	33
91	358
92	40
93	9
94	4
95	3
96	4
97	4
98	2
99	2
102	3
103	5
104	33
105	18
106	604
107	999
108	79
109	4
110	6
111	6
112	2
113	2
114	1
115	3
116	18
117	18
118	9
119	8
120	8
121	21
122	9
123	40
124	85
125	9
126	9
127	31
128	26
129	3
130	1
131	15
132	47
133	48
134	5
135	3
136	4
137	2
138	6
139	2
141	2
146	2
148	102
149	249
150	91
151	18
152	5
153	2
163	8
164	3
165	6
167	2
169	2
180	2
181	2
194	1
197	2
205	2
206	2
207	2
211	2
213	2
220	1
221	35
222	132
223	66
224	10
225	2
239	9
240	6
241	2
253	3
254	4
255	42
256	349
257	67
258	21
259	4
