Mass Spectrum: Ethanol, 2,2-diethoxy-
Formula: C6H14O3
CAS: 621-63-6
Molecular weight: 134
m/z	intensity
27	330
28	206
29	648
30	38
31	961
32	41
39	4
40	6
41	24
42	44
43	291
44	82
45	301
46	72
47	999
48	11
49	8
50	1
51	2
52	0
53	1
55	3
56	9
57	41
58	5
59	259
60	42
61	685
62	17
63	3
64	0
65	1
66	0
67	1
69	2
70	2
71	4
72	8
73	10
74	1
75	388
76	14
77	8
78	0
79	5
81	2
82	0
83	1
84	1
85	6
86	1
87	3
88	8
89	197
90	8
91	2
93	2
95	1
97	0
98	2
99	9
100	1
101	3
102	0
103	522
104	25
105	5
106	1
107	2
108	2
109	1
110	0
113	1
114	0
115	2
117	2
129	1
130	0
131	0
132	0
133	2
