Mass Spectrum: Metacetamol
Formula: C8H9NO2
CAS: 621-42-1
Molecular weight: 151
m/z	intensity
26	8
27	27
28	12
29	5
30	1
31	1
37	2
38	6
39	21
40	4
41	10
42	11
43	146
44	4
45	1
48	0
49	0
50	8
51	17
52	44
53	57
54	17
55	17
56	3
57	6
58	1
59	1
60	1
61	2
62	5
63	10
64	7
65	12
66	2
67	2
68	5
69	5
70	2
71	3
73	1
74	1
75	1
76	1
77	2
78	3
80	108
81	80
82	14
83	4
84	1
85	2
87	1
88	0
89	1
90	1
91	3
92	1
93	2
94	3
95	2
96	1
97	2
98	1
99	1
101	1
102	0
103	0
104	1
105	1
106	1
108	91
109	999
110	60
111	3
112	0
113	0
114	0
115	1
116	0
117	0
118	0
119	0
120	1
121	1
122	2
123	1
127	0
129	1
130	1
132	0
133	0
134	0
135	3
136	1
139	0
141	0
142	0
144	1
150	3
151	332
152	27
153	2
