Mass Spectrum: Xylo-pentodialdose, 2,3,4-tris-O-(trimethylsilyl)-, bis(O-methyloxime)
Formula: C16H38N2O5Si3
CAS: 62108-15-0
Molecular weight: 422
m/z	intensity
24	0
25	0
26	4
27	25
28	118
29	29
30	9
31	15
32	7
33	1
34	0
35	0
37	0
38	0
39	2
40	2
41	3
42	3
43	13
44	18
45	93
46	5
47	9
48	0
51	6
52	2
53	2
54	4
55	8
56	1
57	3
58	8
59	54
60	4
61	7
63	0
64	0
65	0
66	4
67	11
68	7
69	2
70	12
71	4
72	23
73	999
74	80
75	83
76	5
77	2
78	0
79	0
80	1
81	1
82	3
83	0
84	5
85	5
86	7
87	4
88	3
89	70
90	6
91	3
92	0
93	1
95	1
96	1
97	0
98	2
99	4
100	36
101	12
102	26
103	120
104	13
105	34
106	1
107	1
108	0
109	1
110	0
111	1
112	4
113	2
114	25
115	13
116	7
117	6
118	1
119	5
120	0
121	2
124	0
125	0
126	3
127	3
128	5
129	6
130	30
131	16
132	5
133	96
134	11
135	5
136	0
139	1
140	1
141	1
142	14
143	10
144	3
145	7
146	3
147	86
148	13
149	10
150	1
151	0
152	0
153	0
154	1
155	1
156	1
157	1
158	19
159	3
160	86
161	14
162	5
163	16
164	2
165	1
167	0
168	0
169	0
170	0
171	1
172	10
173	5
174	4
175	1
176	12
177	3
178	2
180	0
181	0
182	0
184	0
186	3
187	1
188	2
189	8
190	2
191	2
192	0
193	0
194	0
195	0
196	0
199	0
200	4
201	7
203	10
204	28
205	8
206	4
207	3
209	0
210	0
211	0
212	1
213	1
214	2
215	8
216	54
217	17
218	6
219	1
220	1
221	1
224	0
226	0
228	3
229	1
230	6
231	145
232	43
233	23
234	18
235	9
236	3
237	0
238	0
239	0
240	0
241	0
242	1
243	2
244	1
245	1
246	9
247	2
248	1
253	0
254	0
255	0
256	0
257	0
258	0
259	1
260	1
261	2
262	262
263	56
264	25
265	3
266	1
270	0
271	0
274	1
275	0
285	0
286	1
288	0
291	1
292	0
301	0
317	9
318	2
319	1
320	0
330	0
333	0
334	0
344	0
345	0
346	0
348	0
