Mass Spectrum: 1-Hepten-4-ol, 4-propyl-
Formula: C10H20O
CAS: 62108-07-0
Molecular weight: 156
m/z	intensity
27	155
28	14
29	102
30	14
31	32
32	2
39	243
40	56
41	452
42	80
43	604
44	23
45	45
50	12
51	42
52	25
53	107
54	12
55	931
56	49
57	69
58	48
59	145
63	13
65	74
66	36
67	392
68	50
69	112
70	13
71	999
72	48
73	250
74	14
77	84
78	19
79	110
80	25
81	177
82	46
83	19
91	36
93	35
95	400
96	45
97	109
109	40
113	91
115	597
116	43
123	22
138	85
139	9
