Mass Spectrum: Decane, 2,6,8-trimethyl-
Formula: C13H28
CAS: 62108-26-3
Molecular weight: 184
m/z	intensity
39	47
40	11
41	217
42	61
43	476
44	15
50	4
51	6
52	6
53	14
54	6
55	98
56	138
57	999
58	42
59	4
67	11
68	8
69	58
70	62
71	316
72	13
73	7
84	13
85	87
86	8
97	10
98	43
99	83
100	7
112	18
113	33
114	6
126	8
127	10
154	4
155	15
156	2
169	0
184	4
