Mass Spectrum: 3-Octyne, 5-methyl-
Formula: C9H16
CAS: 62108-33-2
Molecular weight: 124
m/z	intensity
24	1
26	18
27	373
28	190
29	144
30	1
31	7
32	48
36	0
37	8
38	2
39	396
40	65
41	690
42	80
43	189
44	2
46	1
47	7
48	3
49	4
50	35
51	106
52	54
53	422
54	84
55	376
56	25
58	4
61	7
62	15
63	29
64	11
65	121
66	65
67	999
68	89
69	47
70	20
71	0
72	3
74	4
75	16
76	6
77	140
78	32
79	409
80	65
81	580
82	249
83	15
84	1
85	0
89	0
91	32
92	1
93	41
94	14
95	656
96	211
97	7
105	0
107	9
109	115
110	5
111	1
113	0
123	1
124	54
125	4
