Mass Spectrum: Decane, 2,6,6-trimethyl-
Formula: C13H28
CAS: 62108-24-1
Molecular weight: 184
m/z	intensity
39	41
40	9
41	224
42	24
43	467
44	15
53	13
54	6
55	82
56	199
57	999
58	50
59	5
67	7
68	7
69	48
70	80
71	288
72	20
73	5
83	11
84	10
85	111
86	6
98	49
99	117
100	7
111	6
112	2
113	10
126	30
127	57
128	7
169	7
