Mass Spectrum: 1,7-Nonadiene, 4,8-dimethyl-
Formula: C11H20
CAS: 62108-28-5
Molecular weight: 152
m/z	intensity
24	0
25	3
26	6
27	142
28	67
29	110
30	3
32	8
35	2
37	4
38	7
39	169
40	37
41	999
42	65
43	108
44	4
48	0
50	3
51	16
52	7
53	89
54	44
55	492
56	80
57	71
58	5
59	0
62	1
63	3
64	1
65	16
66	20
67	294
68	317
69	809
70	74
71	6
75	1
76	0
77	15
78	5
79	18
80	11
81	287
82	189
83	49
84	6
91	5
92	0
93	10
94	32
95	181
96	136
97	17
107	2
108	9
109	195
110	49
111	11
123	19
124	4
137	27
138	2
152	16
153	1
