Mass Spectrum: Xylo-hexos-5-ulose, 2,3,4,6-tetrakis-O-(trimethylsilyl)-, bis(O-methyloxime)
Formula: C20H48N2O6Si4
CAS: 62108-13-8
Molecular weight: 524
m/z	intensity
27	17
28	42
29	28
30	3
31	25
32	11
43	12
44	9
45	58
47	13
55	9
58	4
59	55
70	9
72	17
73	999
74	80
75	121
76	9
77	7
82	3
83	1
84	37
85	7
86	2
87	1
88	1
89	87
90	10
91	1
96	4
97	3
98	3
99	3
100	29
101	8
102	10
103	108
104	10
105	29
106	3
107	1
109	1
110	1
111	1
112	3
113	3
114	37
115	9
116	5
117	10
118	3
119	6
120	1
121	2
122	1
123	1
124	0
125	2
126	3
127	3
128	5
129	15
130	27
131	15
132	3
133	80
134	9
135	7
136	2
137	3
138	3
139	2
140	4
141	6
142	19
143	14
144	7
145	7
146	4
147	156
148	25
149	19
150	2
151	1
152	1
153	1
154	2
156	2
157	2
158	14
159	4
160	79
161	13
162	4
163	12
164	3
165	1
166	1
167	1
168	1
169	2
170	16
171	3
172	26
173	18
174	10
175	4
176	6
177	4
178	2
183	1
186	2
187	1
188	6
189	7
190	3
191	11
192	1
193	1
199	1
200	3
201	7
202	29
203	10
204	27
205	8
206	4
207	24
208	4
209	2
213	1
214	5
215	5
216	22
217	91
218	22
219	8
220	2
221	3
223	1
227	1
228	1
229	1
230	2
231	84
232	27
233	12
234	7
235	4
243	1
244	2
245	1
246	4
247	2
248	1
252	1
256	1
258	1
259	1
260	2
261	3
262	112
263	27
264	11
265	3
266	1
267	1
268	1
270	1
272	1
273	1
274	2
275	1
276	1
278	1
281	31
282	0
283	1
289	1
290	1
291	0
302	3
303	1
304	3
305	6
306	2
307	3
308	1
311	1
314	2
318	1
319	2
320	1
331	1
332	13
333	39
334	21
335	9
336	10
337	3
338	1
345	1
347	2
357	1
364	61
365	21
366	4
367	1
377	1
388	2
415	2
