Mass Spectrum: Decane, 2,4,6-trimethyl-
Formula: C13H28
CAS: 62108-27-4
Molecular weight: 184
m/z	intensity
39	62
40	19
41	265
42	82
43	999
44	32
45	10
53	8
54	16
55	95
56	131
57	723
58	26
65	10
66	10
67	13
68	15
69	104
70	65
71	430
72	27
73	9
81	14
83	27
84	112
85	369
86	31
96	6
97	18
98	35
99	51
111	11
126	15
127	70
128	10
155	1
