Mass Spectrum: 2-Pentyne, 5-methoxy-
Formula: C6H10O
CAS: 62108-18-3
Molecular weight: 98
m/z	intensity
27	315
28	344
29	415
30	32
31	44
37	36
38	99
39	771
40	167
41	892
42	127
43	105
44	110
45	351
49	12
50	111
51	151
52	86
53	318
54	68
55	380
56	30
57	45
58	37
59	5
61	15
62	38
63	68
64	17
65	231
66	125
67	999
68	108
69	930
70	40
71	61
72	20
77	6
78	9
79	7
80	3
81	65
82	84
83	255
84	12
85	4
91	6
96	36
97	790
98	78
99	9
