Mass Spectrum: Decane, 2,5,6-trimethyl-
Formula: C13H28
CAS: 62108-23-0
Molecular weight: 184
m/z	intensity
39	43
40	9
41	228
42	61
43	695
44	22
45	7
53	14
54	16
55	126
56	254
57	999
58	44
66	8
67	9
68	8
69	88
70	152
71	200
72	11
73	6
83	17
84	133
85	118
86	13
98	59
99	52
113	19
126	4
127	10
150	0
