Mass Spectrum: 3-Octyne, 6-methyl-
Formula: C9H16
CAS: 62108-34-3
Molecular weight: 124
m/z	intensity
22	0
23	3
25	10
26	25
27	278
29	755
30	18
31	4
33	2
34	1
35	1
36	3
37	18
38	12
39	335
40	84
41	999
42	79
43	66
44	13
46	1
47	3
49	3
50	28
51	81
52	23
53	195
54	37
55	272
56	474
57	719
58	26
59	2
60	3
61	3
62	12
63	21
64	8
65	76
66	65
67	740
68	207
69	63
70	27
72	0
73	21
74	3
75	4
76	1
77	48
78	7
79	51
80	19
81	140
82	100
83	8
86	1
87	1
88	1
89	2
91	5
92	4
93	27
94	10
95	394
96	111
97	9
105	3
107	0
108	4
109	158
110	11
111	1
112	0
115	1
119	0
121	1
123	5
124	61
125	3
