Mass Spectrum: Borane, dimethyl[1-methyl-2-(trimethylsilyl)-1-propenyl]-
Formula: C9H21BSi
CAS: 62108-35-4
Molecular weight: 168
m/z	intensity
27	13
28	13
29	10
30	0
31	8
33	0
35	0
36	2
37	8
38	5
39	18
40	30
41	107
42	4
43	49
44	18
45	105
46	6
47	3
49	1
50	4
51	9
52	2
53	10
54	3
55	10
56	1
57	7
58	12
59	31
60	2
61	2
62	0
63	1
64	7
65	25
66	3
67	11
68	2
69	11
70	3
71	5
72	9
73	999
74	82
75	36
76	1
77	2
78	1
79	6
80	20
81	7
82	2
83	11
84	1
85	3
86	0
87	0
89	0
91	1
92	0
93	3
94	9
95	17
96	2
97	71
98	7
99	4
100	0
101	0
105	0
107	0
108	0
109	2
110	1
111	5
112	3
113	10
114	6
115	18
116	1
117	0
121	0
122	0
123	2
125	0
126	2
127	0
128	1
129	0
136	1
137	5
138	0
139	1
142	1
143	0
147	1
151	0
152	20
153	81
154	11
155	3
167	17
168	71
169	11
170	2
