Mass Spectrum: N-Methoxy-2,2-dicarbamoylaziridine
Formula: C5H9N3O3
CAS: 62136-88-3
Molecular weight: 159
m/z	intensity
29	400
30	350
31	500
32	45
40	150
41	550
42	675
43	475
44	875
45	325
46	27
55	275
56	61
57	475
58	103
59	81
60	125
61	300
62	19
68	350
69	275
70	75
71	450
72	35
73	9
81	175
82	51
83	225
84	64
85	250
86	19
97	225
98	75
99	550
100	25
101	9
110	50
111	999
112	125
113	11
142	525
143	47
144	11
