Mass Spectrum: Benzenesulfonic acid, 4-bromo-, methyl ester
Formula: C7H7BrO3S
CAS: 6213-85-0
Molecular weight: 250
m/z	intensity
39	57
40	3
41	5
42	1
43	2
44	7
45	37
46	3
47	5
48	58
49	57
50	999
51	180
52	20
53	13
54	5
55	3
56	1
57	12
58	8
59	2
60	4
61	25
62	45
63	140
64	81
65	24
66	4
67	4
68	3
69	39
70	10
71	4
72	5
73	67
74	420
75	846
76	798
77	159
78	23
79	410
80	19
81	44
82	22
83	3
84	3
85	1
86	1
87	1
89	1
90	1
91	4
92	43
93	22
94	25
95	37
96	41
97	5
98	2
99	1
100	1
104	7
105	19
106	9
107	22
108	24
109	3
110	1
111	5
112	1
113	1
115	1
116	4
117	24
118	5
119	23
120	1
121	1
122	1
123	3
124	2
125	1
126	1
127	1
128	12
129	37
130	13
131	37
132	2
133	2
135	1
139	2
140	10
141	23
142	4
143	93
144	7
145	88
146	6
147	1
149	1
150	1
151	1
152	2
153	3
154	10
155	916
156	154
157	920
158	138
159	10
160	2
161	2
162	1
163	1
164	1
165	1
166	1
167	1
168	1
169	1
170	2
171	112
172	20
173	109
174	16
175	8
176	1
177	7
178	1
179	1
180	1
181	1
182	1
183	1
184	1
185	1
186	88
187	9
188	86
189	9
190	1
191	1
201	1
202	1
203	21
204	2
205	21
206	2
207	1
217	1
218	1
219	522
220	43
221	529
222	43
223	27
224	2
236	1
248	1
249	1
250	584
251	52
252	594
253	57
254	33
255	8
256	1
