Mass Spectrum: N-Carbobenzyloxy-4-hydroxy-l-prolylglycine
Formula: C15H18N2O6
CAS: 62147-26-6
Molecular weight: 322
m/z	intensity
41	46
42	19
43	28
44	50
45	26
49	28
50	6
51	27
55	36
56	60
57	17
58	11
63	20
65	99
68	36
69	7
74	25
77	18
84	47
85	6
86	39
88	3
89	26
90	7
91	999
92	87
105	3
107	7
130	19
141	10
169	20
176	188
177	23
187	17
220	200
221	26
243	14
304	3
322	3
