Mass Spectrum: 1,3-Dihydroxyacetone dimer
Formula: C6H12O6
CAS: 62147-49-3
Molecular weight: 180
m/z	intensity
12	3
13	8
14	26
15	102
16	5
17	54
18	257
19	7
24	1
25	5
26	15
27	23
28	56
29	206
30	45
31	999
32	89
33	126
34	1
36	1
37	3
38	3
39	8
40	10
41	11
42	146
43	305
44	25
45	37
46	14
47	4
49	2
53	4
54	2
55	18
56	25
57	34
58	8
59	21
60	69
61	44
62	41
63	1
67	1
68	2
69	6
70	9
71	9
72	96
73	55
74	27
75	5
76	1
77	3
81	3
82	1
83	1
84	1
85	22
86	10
87	10
88	11
89	3
90	8
91	9
97	5
98	4
99	8
100	2
101	10
102	3
103	14
104	2
107	1
109	3
110	2
111	3
112	1
113	7
114	9
115	19
116	3
117	7
118	1
119	2
126	2
127	19
128	4
129	2
130	1
131	30
132	4
133	3
135	1
142	1
143	3
144	2
145	9
146	3
147	1
149	3
157	1
159	1
161	3
162	1
163	2
