Mass Spectrum: Benzenesulfonic acid, 4-nitro-, methyl ester
Formula: C7H7NO5S
CAS: 6214-20-6
Molecular weight: 217
m/z	intensity
14	1
15	110
16	1
18	2
26	5
27	8
28	31
29	28
30	191
31	15
32	1
37	14
38	41
39	49
40	2
41	18
42	1
43	1
44	4
45	17
46	7
47	1
48	5
49	8
50	409
51	66
52	23
53	14
54	4
55	8
57	2
58	5
59	9
60	1
61	10
62	27
63	135
64	134
65	42
66	5
67	28
68	2
69	17
70	14
71	3
72	2
73	16
74	138
75	483
76	355
77	186
78	15
79	999
80	39
81	52
82	6
83	9
84	10
85	5
86	2
87	2
88	1
89	2
90	3
91	4
92	286
93	42
94	4
95	41
96	9
97	3
98	1
99	1
100	2
104	1
105	1
106	9
107	24
108	26
109	5
111	20
112	8
113	2
115	1
121	1
122	466
123	208
124	18
125	2
126	1
127	2
128	3
139	18
140	7
141	44
142	5
143	3
153	9
154	1
156	4
170	3
171	232
172	20
173	12
174	1
186	240
187	57
188	16
189	3
201	15
202	1
203	1
217	728
218	68
219	43
220	4
