Mass Spectrum: Sulfurous acid, dicyclohexyl ester
Formula: C12H22O3S
CAS: 6214-17-1
Molecular weight: 246
m/z	intensity
25	0
26	31
27	278
28	72
29	280
30	9
31	30
33	3
34	7
35	2
36	0
37	6
38	17
39	218
40	44
41	510
42	186
43	145
44	114
45	20
46	2
48	28
49	2
50	19
51	25
52	10
53	62
54	207
55	730
56	105
57	364
58	30
59	5
60	2
61	2
62	0
63	5
64	47
65	14
66	17
67	352
68	19
69	53
70	33
71	52
72	31
73	4
74	2
76	2
77	19
78	9
79	31
80	34
81	89
82	451
83	999
84	59
85	7
86	2
87	1
88	0
89	1
90	1
91	1
92	0
94	1
95	3
96	6
97	8
98	42
99	19
100	85
101	9
109	6
165	41
166	3
167	2
246	1
