Mass Spectrum: N-Carbobenzyloxy-4-hydroxy-l-prolylglycine ethyl ester
Formula: C17H22N2O6
CAS: 62147-25-5
Molecular weight: 350
m/z	intensity
41	24
42	12
43	11
44	9
45	3
47	4
48	2
49	15
50	4
51	15
52	3
53	1
54	4
55	20
56	56
57	8
58	9
59	2
60	1
61	2
62	2
63	13
64	5
65	70
66	4
67	4
68	40
69	5
70	4
74	45
75	0
76	3
77	16
78	3
79	8
80	0
82	1
83	4
84	3
85	5
86	3
87	2
88	2
89	25
91	999
92	87
93	3
96	1
97	2
98	3
99	2
102	36
103	2
104	7
105	4
106	0
107	7
108	2
110	4
111	0
112	8
113	3
120	3
123	1
128	0
129	0
130	18
131	0
141	20
142	1
143	4
158	13
159	0
169	10
170	0
171	2
176	360
177	42
178	2
181	1
183	1
196	1
197	94
198	10
199	0
215	34
216	3
219	3
220	272
221	37
222	4
224	2
233	9
234	0
243	3
248	6
261	0
266	0
305	31
306	5
307	3
332	30
333	6
350	16
351	3
352	0
