Mass Spectrum: 7-amino-n-heptane-aminocarboxylic acid, benzyl ester
Formula: C15H24N2O2
CAS: 62146-64-9
Molecular weight: 264
m/z	intensity
41	72
42	27
43	52
44	67
45	69
46	13
50	5
51	22
52	7
53	8
54	8
55	60
56	69
57	21
58	14
59	43
60	8
62	4
63	19
64	6
65	104
66	7
67	13
68	6
69	30
70	20
71	12
72	37
73	24
74	58
75	5
76	1
77	44
78	14
79	62
80	52
81	27
82	55
83	20
84	12
85	5
86	78
87	50
88	10
89	34
91	999
92	104
93	8
95	20
96	9
97	7
98	7
100	190
101	19
104	28
105	28
106	19
107	32
108	64
109	6
110	1
111	1
112	112
113	11
114	12
115	5
117	8
118	7
119	5
120	16
121	1
124	1
125	1
126	2
129	18
130	8
131	9
132	1
133	1
144	57
145	8
146	1
148	1
149	3
151	21
152	3
155	11
156	14
157	14
158	12
159	1
164	9
173	10
174	9
190	1
192	3
221	1
222	3
264	58
265	15
266	1
