Mass Spectrum: N-Carbobenzyloxy-4-hydroxy-l-prolylglycine benzyl ester
Formula: C22H24N2O6
CAS: 62147-24-4
Molecular weight: 412
m/z	intensity
41	12
42	4
43	6
44	103
45	3
48	5
49	5
50	15
51	27
52	8
53	5
55	9
56	13
57	5
58	1
61	1
62	7
63	21
64	11
65	74
66	6
68	17
69	5
74	6
75	3
76	4
77	66
78	15
79	71
80	5
81	11
82	6
83	3
84	12
85	4
86	19
89	33
90	30
91	999
92	123
93	8
94	3
96	1
97	2
98	2
105	22
106	8
107	65
108	61
109	6
111	1
119	3
120	1
127	5
130	15
139	1
141	9
149	1
152	5
155	5
157	5
158	22
159	1
164	1
165	16
166	6
167	12
169	11
172	3
174	1
176	316
177	39
178	13
179	28
180	23
181	13
182	7
184	3
187	12
188	9
192	3
197	5
198	8
201	3
202	9
203	2
213	1
215	15
219	4
220	268
221	38
222	8
248	1
254	7
258	2
259	38
260	7
269	3
270	5
271	9
272	1
277	38
278	7
305	1
367	3
368	1
394	29
395	8
396	18
397	4
412	7
