Mass Spectrum: L-Leucine, N-(N-acetyl-L-valyl)-, butyl ester
Formula: C17H32N2O4
CAS: 62167-68-4
Molecular weight: 328
m/z	intensity
15	6
18	2
26	2
27	29
28	32
29	63
30	40
31	3
32	7
39	14
40	3
41	85
42	15
43	104
44	42
45	2
46	2
53	6
54	5
55	79
56	39
57	60
58	41
59	2
60	22
67	3
68	5
69	12
70	36
71	9
72	790
73	41
74	10
81	2
82	4
83	18
84	12
85	5
86	775
87	46
88	4
96	2
97	3
98	5
99	10
100	78
101	6
112	6
113	36
114	999
115	620
116	41
117	3
126	3
128	2
130	18
131	3
132	3
141	27
142	77
143	9
144	2
149	7
156	3
167	3
168	8
169	3
172	9
183	2
184	2
185	2
186	7
187	4
188	21
189	3
198	5
211	3
212	2
213	4
214	3
227	62
228	10
243	17
244	3
254	2
255	18
256	3
267	2
270	2
272	46
273	7
285	3
286	14
287	3
313	8
328	14
329	3
