Mass Spectrum: L-Valine, N-(N-acetyl-L-leucyl)-, butyl ester
Formula: C17H32N2O4
CAS: 62167-67-3
Molecular weight: 328
m/z	intensity
15	10
18	9
26	3
27	46
28	39
29	102
30	110
31	5
39	26
40	5
41	117
42	26
43	152
44	316
45	6
53	9
54	7
55	64
56	46
57	66
58	8
59	6
60	12
67	8
68	9
69	18
70	42
71	13
72	765
73	38
74	10
82	6
83	5
84	28
85	17
86	999
87	61
95	4
96	3
97	10
98	13
99	9
100	6
101	5
112	11
113	4
114	4
116	23
117	4
118	3
126	11
127	32
128	806
129	399
130	35
131	3
141	4
149	6
154	3
155	4
156	87
157	10
158	6
168	4
169	3
170	7
172	7
173	15
174	38
175	5
211	5
227	31
228	6
229	8
255	12
272	48
273	7
313	7
328	8
