Mass Spectrum: L-Leucine, N-(N-acetylglycyl)-, butyl ester
Formula: C14H26N2O4
CAS: 62167-66-2
Molecular weight: 286
m/z	intensity
15	8
18	3
26	1
27	17
28	15
29	40
30	177
31	18
32	3
36	1
39	10
40	2
41	40
42	8
43	91
44	40
45	9
53	3
54	3
55	10
56	8
57	35
58	6
60	1
67	2
68	3
69	5
70	11
71	2
72	62
73	213
74	11
75	3
79	1
80	8
82	6
83	2
84	8
85	3
86	999
87	56
88	4
93	1
94	2
96	3
97	1
99	3
100	69
101	4
110	3
111	3
112	3
113	2
114	8
115	4
116	2
117	2
127	1
129	3
130	18
131	5
132	3
141	1
143	2
144	3
149	2
151	3
156	10
169	5
170	2
171	3
172	5
185	119
186	17
187	2
188	3
197	4
213	6
214	5
230	22
231	3
271	2
286	8
287	1
