Mass Spectrum: L-Alanine, N-(N-acetyl-L-leucyl)-, butyl ester
Formula: C15H28N2O4
CAS: 62167-77-5
Molecular weight: 300
m/z	intensity
15	15
18	6
26	6
27	54
28	37
29	108
30	117
31	4
39	23
40	7
41	139
42	43
43	170
44	547
45	15
53	9
54	7
55	23
56	26
57	67
58	4
60	11
67	7
68	11
69	14
70	39
71	7
72	20
73	9
74	6
77	4
82	4
83	4
84	26
85	12
86	999
87	59
88	23
90	7
95	4
96	6
97	9
98	7
99	26
100	4
112	15
113	4
114	7
116	4
126	6
127	20
128	881
129	483
130	40
140	4
144	7
145	4
146	46
147	4
149	18
155	4
156	150
157	15
199	31
200	4
201	11
227	26
244	111
245	15
251	4
263	6
285	9
300	4
