Mass Spectrum: 5H-1,2,4-Triazolo[4,3-b][1,2,4]triazepine, 6,7,8,9-tetrahydro-6-methyl-
Formula: C6H11N5
CAS: 62170-16-5
Molecular weight: 153
m/z	intensity
40	68
41	448
42	410
43	400
44	652
45	181
55	999
56	251
57	470
70	496
71	101
83	207
84	179
96	49
97	300
110	199
111	90
125	159
138	50
153	847
