Mass Spectrum: S-Butyl phenoxythioacetate
Formula: C12H16O2S
CAS: 62170-10-9
Molecular weight: 224
m/z	intensity
41	387
51	361
55	222
57	317
61	962
65	169
71	20
72	9
73	29
74	30
75	39
76	69
77	999
78	99
79	289
80	30
81	20
82	20
83	19
84	19
85	19
86	20
87	29
88	30
89	30
90	9
91	19
92	10
93	50
94	247
95	39
97	29
103	411
104	49
105	60
106	9
107	831
108	119
109	30
110	10
111	10
117	29
130	39
134	20
135	19
168	40
182	9
224	569
225	99
226	50
