Mass Spectrum: 3,5,8-Trimethyl-1-phenyl-6,8-dihydropyrazolo[3,4-b][1,4]diazepin-7(1H)-one  #
Formula: C15H16N4O
CAS: 62170-14-3
Molecular weight: 268
m/z	intensity
40	180
41	426
42	309
50	78
51	621
52	129
56	999
57	59
64	148
65	68
66	59
67	90
77	805
80	200
91	332
118	138
132	49
133	59
144	50
163	118
184	148
198	79
211	69
225	228
226	160
239	120
240	50
268	469
