Mass Spectrum: D-Galactofuranose, pentaacetate
Formula: C16H22O11
CAS: 62181-82-2
Molecular weight: 390
m/z	intensity
27	6
29	8
30	2
31	9
39	3
40	2
41	8
42	11
43	999
44	29
45	7
51	2
52	2
53	3
54	2
55	10
56	3
57	8
58	2
59	4
60	9
61	10
65	2
68	7
69	15
70	8
71	9
72	2
73	35
74	4
80	8
81	29
82	5
83	3
84	17
85	60
86	33
87	4
96	4
97	32
98	96
99	18
100	3
101	34
102	18
103	129
104	8
105	2
109	32
110	8
111	4
112	4
113	12
114	7
115	110
116	12
117	2
120	4
124	2
125	7
126	63
127	61
128	19
129	4
131	5
133	2
135	2
138	3
139	14
140	8
141	9
142	2
143	157
144	16
145	126
146	9
147	3
149	10
150	2
151	3
152	2
155	4
156	4
157	55
158	47
159	6
160	2
161	7
167	6
168	93
169	84
170	11
171	4
172	2
173	10
174	3
175	7
182	3
183	2
184	1
185	10
186	15
187	8
188	2
199	8
200	6
201	2
202	2
203	51
204	3
205	3
210	30
211	13
212	3
213	1
214	2
215	18
216	4
217	20
218	3
228	21
229	9
230	3
242	2
243	2
244	2
245	110
246	14
247	4
259	3
260	1
261	1
287	4
288	4
289	2
331	31
332	6
333	2
347	2
