Mass Spectrum: Silane, (4-bromo-3,3,4,4-tetrafluorobutyl)triethyl-
Formula: C10H19BrF4Si
CAS: 62185-59-5
Molecular weight: 322
m/z	intensity
26	59
27	50
28	127
29	61
30	2
31	17
32	7
33	1
35	1
36	9
37	1
38	3
39	40
40	7
41	11
42	2
43	13
44	10
45	12
46	2
47	18
48	2
49	71
50	7
51	62
52	6
53	5
54	1
55	6
56	4
57	22
58	40
59	178
60	15
61	6
62	14
63	33
64	14
65	12
66	1
67	33
70	7
71	32
72	8
73	5
74	1
75	30
76	29
77	731
78	59
79	22
80	6
82	6
83	2
84	1
85	12
86	16
87	361
88	31
89	446
90	487
91	43
92	2
93	5
94	1
95	72
96	5
97	3
99	1
100	1
101	3
103	7
104	6
105	999
106	102
107	38
108	19
109	319
110	13
111	2
112	0
113	1
114	2
115	326
116	37
117	13
119	2
121	3
122	0
123	8
124	2
125	1
126	0
127	5
128	2
129	9
130	0
131	9
132	0
133	3
134	6
135	1
137	4
138	0
139	4
140	0
141	0
142	1
143	7
145	2
147	2
149	5
150	0
151	6
152	1
153	2
154	0
155	11
156	1
157	10
160	1
162	0
163	0
165	6
167	6
168	7
169	299
170	19
171	280
172	14
173	1
180	0
181	0
185	4
189	0
194	0
195	3
196	0
203	0
207	0
208	0
213	0
214	0
217	1
253	0
283	1
293	2
