Mass Spectrum: Heptane, 2-methyl-3-methylene-
Formula: C9H18
CAS: 62187-11-5
Molecular weight: 126
m/z	intensity
26	3
27	98
28	2
29	63
30	1
31	5
37	1
38	3
39	92
40	19
41	411
42	56
43	116
44	4
45	12
46	1
47	0
49	0
50	3
51	11
52	7
53	40
54	16
55	374
56	212
57	45
58	4
59	10
60	0
61	0
62	0
63	2
64	0
65	8
66	5
67	42
68	27
69	999
70	125
71	14
72	0
76	0
77	6
78	1
79	6
80	1
81	9
82	10
83	152
84	419
85	24
91	1
93	0
95	1
97	6
98	1
111	2
126	132
127	11
128	0
