Mass Spectrum: 2-Cyclopentene-1-carboxylic acid, 3,4-dimethyl-, methyl ester
Formula: C9H14O2
CAS: 62185-63-1
Molecular weight: 154
m/z	intensity
26	5
27	23
28	20
29	25
30	1
31	2
32	0
33	1
36	0
37	0
38	0
39	29
40	6
41	64
42	4
43	11
44	3
45	4
48	0
50	2
51	8
52	5
53	45
54	7
55	113
56	6
57	1
58	0
59	24
60	0
61	3
63	0
64	0
65	17
66	5
67	251
68	16
69	3
70	0
71	1
73	0
74	0
75	3
76	0
77	62
78	13
79	171
80	35
81	9
82	2
83	2
84	0
85	1
86	0
87	1
88	0
89	0
90	0
91	29
92	4
93	74
94	393
95	999
96	68
97	4
98	0
99	0
100	1
101	0
103	0
104	0
105	1
106	0
107	12
108	1
109	1
110	0
111	8
112	1
113	0
115	0
119	0
121	2
122	6
123	10
124	1
125	2
126	4
127	0
133	0
137	1
138	0
139	29
140	2
141	0
149	0
153	0
154	106
155	11
156	1
