Mass Spectrum: 2,6-Heptadienoic acid, 3-methyl-, methyl ester
Formula: C9H14O2
CAS: 62185-61-9
Molecular weight: 154
m/z	intensity
26	7
27	66
28	29
29	181
30	3
31	4
32	0
33	2
36	0
37	0
38	1
39	102
40	32
41	81
42	11
43	16
44	3
45	8
46	0
47	0
48	0
49	0
50	3
51	10
52	7
53	82
54	33
55	999
56	43
57	6
58	2
59	51
60	2
61	2
63	0
64	0
65	17
66	9
67	106
68	196
69	220
70	12
71	16
72	2
73	1
74	3
75	1
76	0
77	48
78	11
79	120
80	33
81	48
82	9
83	3
84	1
85	58
86	2
87	4
88	1
89	0
91	21
92	2
93	36
94	169
95	274
96	21
97	9
98	9
99	10
100	792
101	42
102	4
103	1
104	0
105	4
106	1
107	15
108	1
109	1
110	0
111	23
112	7
113	14
114	1
119	0
121	2
122	35
123	65
124	6
125	37
126	4
127	0
133	0
137	0
139	33
140	2
141	0
142	0
144	0
152	0
153	1
154	8
155	7
156	0
