Mass Spectrum: Silane, diethylmethyl-7-octenyl-
Formula: C13H28Si
CAS: 62185-52-8
Molecular weight: 212
m/z	intensity
27	9
28	17
29	11
30	2
32	10
35	2
36	12
38	3
39	6
41	21
42	6
43	12
44	13
45	222
46	15
47	8
53	3
54	4
55	21
57	6
58	19
59	82
60	5
61	1
64	0
66	2
67	11
68	3
69	2
70	4
71	37
72	40
73	999
74	83
75	34
76	2
77	1
79	3
81	8
82	1
83	6
84	2
85	38
86	9
87	148
88	16
89	4
93	1
95	6
97	18
98	4
99	73
100	12
101	479
102	46
103	15
104	1
107	2
109	109
110	13
111	7
112	2
113	129
114	19
115	63
116	6
117	3
125	8
126	4
127	42
128	3
129	4
132	1
139	8
140	1
141	18
142	2
143	0
147	2
153	47
154	7
155	53
156	9
157	4
161	1
165	0
167	1
169	5
170	1
179	4
180	1
181	16
182	3
183	374
184	58
185	19
186	3
193	1
195	0
197	5
212	3
213	1
