Mass Spectrum: 3-Cyclopentene-1-carboxylic acid, 3,4-dimethyl-, methyl ester
Formula: C9H14O2
CAS: 62185-64-2
Molecular weight: 154
m/z	intensity
26	7
27	32
28	33
29	31
30	1
31	2
32	1
33	5
38	0
39	44
40	9
41	86
42	5
43	39
44	4
45	6
46	0
47	0
48	0
49	0
50	2
51	9
52	6
53	55
54	10
55	113
56	6
57	3
58	0
59	26
60	1
61	9
63	1
64	0
65	26
66	9
67	227
68	16
69	8
70	0
71	2
72	0
73	1
74	1
75	1
76	0
77	117
78	22
79	431
80	46
81	14
82	2
83	4
84	0
85	2
86	0
87	6
88	0
89	1
91	63
92	10
93	157
94	714
95	999
96	75
97	9
98	1
99	1
101	0
103	0
105	2
106	0
107	16
108	4
109	5
110	1
111	28
112	4
113	1
115	0
119	0
120	1
121	9
122	8
123	99
124	9
125	5
126	2
127	1
135	0
136	0
137	6
138	1
139	74
140	6
141	1
142	0
152	2
153	2
154	299
155	31
156	2
