Mass Spectrum: Nonane, 4-methyl-5-propyl-
Formula: C13H28
CAS: 62185-55-1
Molecular weight: 184
m/z	intensity
25	1
26	11
27	96
28	0
29	168
30	5
36	5
37	6
38	1
39	48
40	9
41	300
42	91
43	822
44	11
47	0
50	0
51	5
52	0
53	24
54	8
55	224
56	127
57	999
58	34
59	0
60	0
63	2
65	3
66	3
67	15
68	12
69	73
70	361
71	789
72	44
77	1
79	3
81	2
82	28
83	126
84	84
85	142
86	10
91	2
95	0
96	0
97	23
98	7
99	16
111	0
112	301
113	57
114	2
126	10
127	18
140	8
141	25
142	2
184	2
