Mass Spectrum: Silane, [(1-methoxy-1,3-propanediyl)bis(oxy)]bis[trimethyl-
Formula: C10H26O3Si2
CAS: 62185-57-3
Molecular weight: 250
m/z	intensity
24	0
26	6
27	2
28	88
29	26
30	7
31	3
32	0
36	4
40	2
41	26
43	22
44	20
45	247
46	9
47	21
48	1
49	0
50	1
53	0
54	5
55	7
56	5
57	8
58	7
59	89
60	9
61	16
62	1
63	1
66	24
67	7
68	3
69	1
70	0
71	21
72	19
73	999
74	88
75	78
76	4
77	4
80	0
81	3
82	1
83	1
84	0
85	5
86	2
87	4
88	6
89	188
90	17
91	8
92	2
93	1
95	2
96	0
99	2
101	62
102	8
103	65
104	6
105	9
106	4
107	3
108	1
109	1
110	3
113	0
114	0
115	13
116	46
117	149
118	20
119	20
120	2
122	2
123	1
124	0
125	0
128	0
129	24
130	5
131	37
132	7
133	65
134	10
135	7
136	0
138	1
141	1
143	1
145	30
146	20
147	783
148	125
149	60
150	7
151	2
154	0
159	1
160	32
161	5
162	2
163	9
164	2
175	3
176	1
177	17
178	3
179	1
180	1
181	1
188	1
189	2
190	0
193	1
199	0
203	13
204	15
205	333
206	70
207	36
208	3
217	1
218	0
221	0
222	0
229	1
235	26
236	6
237	2
243	0
