Mass Spectrum: Cyclopentane, 1-butyl-2-propyl-
Formula: C12H24
CAS: 62199-50-2
Molecular weight: 168
m/z	intensity
24	2
25	3
26	3
27	118
28	5
29	160
30	5
32	4
35	1
37	4
38	4
39	100
41	477
42	202
43	289
45	2
48	2
50	6
51	8
52	3
53	46
54	68
55	646
56	576
57	290
58	17
60	1
61	0
63	1
65	13
66	25
67	152
68	57
69	999
70	348
71	72
72	3
73	1
74	2
75	1
77	12
78	2
79	12
80	5
81	50
82	73
83	300
84	186
85	47
86	4
89	0
91	5
93	2
94	2
95	12
96	31
97	136
98	68
99	6
109	5
110	48
111	229
112	54
113	3
115	1
121	1
123	3
124	34
125	105
126	25
127	1
139	9
140	34
141	3
166	1
168	42
