Mass Spectrum: Propanedinitrile, (6-bromo-3-cyclohexen-1-yl)-
Formula: C9H9BrN2
CAS: 62199-49-9
Molecular weight: 224
m/z	intensity
26	33
27	112
28	44
29	8
30	0
31	4
32	2
35	0
36	3
37	11
38	34
39	151
40	21
41	35
42	4
43	3
44	7
45	2
46	0
48	0
49	4
50	39
51	82
52	52
53	40
54	25
55	4
56	1
57	1
59	2
60	1
61	3
62	10
63	27
64	18
65	37
66	28
67	171
68	6
69	1
70	0
73	2
74	5
75	9
76	12
77	144
78	97
79	999
80	305
81	16
82	3
83	0
84	1
85	0
86	1
87	3
88	5
89	16
90	12
91	37
92	8
93	1
94	0
95	2
96	0
97	0
99	0
100	0
101	0
102	4
103	3
104	9
105	3
106	1
107	1
108	3
109	0
110	1
111	0
112	0
113	0
114	3
115	3
116	17
117	19
118	25
119	6
120	0
121	4
128	2
129	6
130	0
131	0
132	0
134	0
141	0
142	1
143	9
144	20
145	31
146	73
147	4
148	70
149	3
157	0
158	2
159	2
160	2
161	1
167	0
197	1
198	0
199	1
209	0
223	0
224	7
225	1
226	6
227	0
