Mass Spectrum: 1-Naphthalenemethanol, 1,2,3,5,6,7,8,8a-octahydro-.alpha.,.alpha.,4,7-tetramethyl-
Formula: C15H26O
CAS: 62192-82-9
Molecular weight: 222
m/z	intensity
26	15
27	8
28	19
29	25
31	31
39	10
40	4
41	76
42	7
43	119
44	3
45	4
50	2
51	1
52	1
53	16
54	4
55	110
56	6
57	16
58	5
59	999
60	32
61	2
64	1
65	6
66	5
67	91
68	35
69	82
70	6
71	49
72	3
73	1
75	1
76	2
77	29
78	10
79	165
80	42
81	220
82	38
83	39
84	6
85	12
86	1
88	1
89	2
90	1
91	102
92	49
93	325
94	96
95	123
96	15
97	12
98	3
99	1
101	1
103	3
104	4
105	423
106	96
107	410
108	368
109	94
110	10
111	8
112	2
114	0
115	2
116	1
117	8
118	8
119	81
120	35
121	321
122	101
123	61
124	6
125	2
126	1
127	2
128	2
129	2
130	1
131	10
132	7
133	67
134	26
135	177
136	230
137	35
138	2
139	6
140	1
143	1
144	1
145	14
146	6
147	69
148	64
149	481
150	63
151	6
152	1
156	1
157	1
158	2
159	8
160	116
161	617
162	111
163	194
164	486
165	64
166	4
173	3
174	1
175	44
176	25
177	6
179	1
187	4
188	4
189	132
190	20
191	3
202	2
203	4
204	119
205	25
206	18
207	30
208	4
221	2
222	108
223	20
224	1
