Mass Spectrum: Bicyclo[4.1.0]hept-2-ene-7,7-dicarbonitrile
Formula: C9H8N2
CAS: 62199-48-8
Molecular weight: 144
m/z	intensity
25	0
26	137
27	532
28	124
29	29
30	1
31	1
32	4
34	0
36	3
37	65
38	180
39	581
40	143
41	164
42	21
43	7
44	3
46	0
48	2
49	23
50	199
51	332
52	190
53	155
54	43
55	8
59	0
60	3
61	29
62	79
63	160
64	128
65	125
66	864
67	68
68	3
69	7
70	1
71	1
72	0
73	5
74	23
75	61
76	83
77	480
78	239
79	999
80	98
81	8
82	1
83	0
84	0
85	2
86	7
87	17
88	46
89	167
90	263
91	93
92	15
93	15
94	5
95	2
97	0
98	1
99	3
100	6
101	9
102	113
103	33
104	62
105	25
106	1
107	1
108	0
109	0
110	0
111	2
112	2
113	1
114	22
115	34
116	432
117	269
118	108
119	9
120	0
121	0
122	0
123	0
127	4
128	8
129	417
130	37
131	1
134	0
135	0
137	0
140	0
141	9
142	51
143	677
144	597
145	58
146	3
