Mass Spectrum: Iron, tricarbonyl[(2,3-.eta.)-methyl 2-propenoate](trimethyl phosphite-P)-
Formula: C10H15FeO8P
CAS: 62199-95-5
Molecular weight: 350
m/z	intensity
27	198
28	999
29	56
30	27
31	44
32	9
33	1
34	0
35	1
36	1
37	0
38	0
39	6
40	4
41	4
42	35
43	10
44	6
45	36
46	1
47	62
48	5
49	4
50	2
51	1
52	0
53	5
54	4
55	448
56	18
57	8
58	34
59	21
60	2
61	2
62	22
63	231
64	4
65	2
66	3
67	0
68	9
69	2
70	0
71	14
72	2
73	5
74	0
77	8
78	2
79	51
82	26
83	13
84	35
85	52
86	16
87	42
88	8
89	8
90	1
91	1
92	3
93	866
94	104
95	6
96	1
97	1
99	1
102	0
103	4
104	1
105	9
106	0
108	0
109	156
110	3
111	5
112	2
113	26
114	26
115	8
116	6
117	24
118	5
119	44
120	9
121	2
122	0
124	122
125	8
126	1
127	4
128	0
129	0
130	0
131	1
132	1
133	29
134	21
135	332
136	12
137	2
138	0
139	1
140	1
141	19
142	27
143	139
144	11
145	3
146	3
147	12
148	3
149	37
150	40
151	157
152	10
153	3
154	0
155	2
156	2
157	3
158	0
159	2
160	2
161	4
162	6
163	30
164	11
165	448
166	21
167	5
168	1
170	8
171	13
172	4
173	198
174	20
175	11
176	7
177	38
178	40
179	26
180	518
181	194
182	16
183	2
184	0
185	0
186	0
188	0
189	0
190	1
191	2
192	14
193	20
194	1
195	3
196	0
197	1
200	0
201	0
202	0
203	6
204	5
205	32
206	76
207	57
208	696
209	63
210	67
211	188
212	14
213	6
214	1
218	1
219	1
220	10
221	5
222	1
223	32
224	2
225	0
226	0
227	0
228	0
229	0
231	0
232	2
233	6
234	6
235	62
236	103
237	12
238	250
239	20
240	3
241	2
242	0
243	0
245	0
246	0
249	15
250	1
251	232
252	23
253	4
254	0
255	0
259	0
260	0
261	5
262	2
263	58
264	87
265	15
266	836
267	82
268	15
276	0
285	0
286	0
288	0
289	2
290	0
291	41
292	19
293	2
294	223
295	26
296	5
297	0
302	0
304	5
305	0
317	1
319	28
320	9
321	2
322	70
323	9
324	2
329	0
348	2
349	0
350	26
351	4
