Mass Spectrum: Cyclohexene, 4,5-dibromo-
Formula: C6H8Br2
CAS: 62199-53-5
Molecular weight: 238
m/z	intensity
26	51
27	124
28	72
29	6
32	8
35	3
36	38
37	13
38	33
39	138
40	17
41	20
42	1
43	2
44	7
45	1
48	1
49	11
50	80
51	144
52	70
53	55
54	19
55	4
56	2
57	4
58	1
59	1
60	1
61	3
62	6
63	17
64	2
65	16
66	4
67	4
69	3
73	5
74	14
75	11
76	7
77	297
78	98
79	999
80	133
81	7
82	26
84	1
88	0
91	1
93	1
95	2
100	0
104	1
105	2
106	1
107	2
117	1
119	5
121	4
131	1
133	0
135	1
146	1
149	8
159	75
160	6
161	75
162	5
238	10
239	0
240	19
241	1
242	11
