Mass Spectrum: p-Tolylthiourea
Formula: C8H10N2S
CAS: 622-52-6
Molecular weight: 166
m/z	intensity
15	2
16	6
17	8
18	3
26	9
27	41
28	26
29	4
30	8
32	17
33	10
34	21
36	4
37	8
38	17
39	81
40	11
41	28
42	9
43	41
44	4
45	20
46	1
47	1
48	1
49	5
50	36
51	69
52	44
53	42
54	15
55	2
56	1
57	2
58	3
59	14
60	139
61	10
62	16
63	52
64	16
65	131
66	23
67	8
69	7
70	2
71	2
73	2
74	6
75	9
76	10
77	168
78	68
79	127
80	35
81	5
82	66
83	5
84	2
85	1
86	3
87	3
88	2
89	34
90	28
91	353
92	43
93	3
94	8
95	1
96	3
97	2
98	1
99	1
102	4
103	4
104	43
105	36
106	999
107	682
108	59
109	5
110	2
111	3
115	2
116	9
117	8
118	23
119	3
121	7
122	5
123	27
124	398
125	32
126	21
127	2
130	2
131	117
132	179
133	236
134	28
135	2
136	3
137	2
138	9
139	1
148	27
149	65
150	21
151	9
152	1
163	4
164	4
165	46
166	808
167	89
168	43
169	4
