Mass Spectrum: N-(4-Iodophenyl)acetamide
Formula: C8H8INO
CAS: 622-50-4
Molecular weight: 261
m/z	intensity
37	56
38	141
39	185
40	43
41	73
42	126
43	999
44	26
49	14
50	119
51	41
52	78
53	14
54	12
61	51
62	119
63	336
64	290
65	477
66	51
73	22
74	46
75	29
76	51
77	17
78	14
79	14
88	12
89	58
90	109
91	195
92	550
93	63
103	12
104	14
105	17
127	97
128	14
133	24
134	17
191	34
218	46
219	833
220	63
261	489
262	51
