Mass Spectrum: Hydrazine, 1-ethyl-2-phenyl-
Formula: C8H12N2
CAS: 622-82-2
Molecular weight: 136
m/z	intensity
24	0
26	6
27	38
28	19
29	47
30	14
31	14
37	6
38	19
39	98
40	13
41	14
42	12
43	4
44	52
45	2
49	1
50	22
51	100
52	30
53	20
54	4
55	1
56	1
57	1
58	0
59	4
60	7
61	3
62	7
63	30
64	33
65	242
66	58
67	6
68	1
69	1
70	0
71	1
73	1
74	5
75	4
76	8
77	314
78	42
79	11
80	61
81	5
82	1
83	1
84	0
85	0
87	0
88	0
89	0
90	5
91	24
92	431
93	230
94	58
95	3
96	0
97	0
102	0
103	0
104	1
105	15
106	9
107	999
108	79
109	3
116	0
117	1
118	3
119	12
120	3
121	60
122	5
123	0
132	0
133	2
134	7
135	8
136	674
137	67
138	3
