Mass Spectrum: 4N-Methylcytosine
Formula: C5H7N3O
CAS: 6220-47-9
Molecular weight: 125
m/z	intensity
51	20
52	60
53	50
54	80
55	90
56	120
57	40
66	50
67	50
68	220
69	80
71	20
81	140
82	50
83	170
84	30
95	100
96	160
97	60
109	100
110	20
112	30
124	90
125	999
126	80
