Mass Spectrum: S-[1-Phenyl-2-[2,2-dimethylpropyl]aminoethyl] thiosulfate
Formula: C13H21NO3S2
CAS: 62209-48-7
Molecular weight: 303
m/z	intensity
41	68
42	34
43	235
44	38
45	40
47	4
48	24
50	7
51	20
52	6
53	8
55	35
56	17
57	34
58	14
59	24
63	9
64	43
65	14
66	15
69	9
70	8
71	127
72	78
73	11
74	1
75	5
76	1
77	51
78	32
79	10
80	33
82	6
84	14
86	13
88	17
89	9
90	6
91	43
92	2
93	6
96	1
98	10
100	999
101	59
102	3
103	60
104	73
105	40
115	10
116	1
117	15
118	9
120	50
121	25
122	7
123	9
128	1
130	17
131	9
132	99
133	14
134	11
135	25
136	6
137	71
138	6
143	10
144	4
158	2
162	3
164	14
166	30
174	11
175	4
189	1
199	20
208	1
224	7
245	4
