Mass Spectrum: 17-Bromoallopregnanolone 3-acetate
Formula: C23H35BrO3
CAS: 62201-77-8
Molecular weight: 438
m/z	intensity
41	113
43	999
44	12
45	9
47	2
48	0
49	14
51	7
53	36
55	136
57	18
59	3
61	21
63	0
65	17
67	100
68	46
69	44
71	17
73	1
77	52
79	161
81	254
83	38
85	42
86	4
87	0
88	1
89	0
91	129
93	185
95	161
96	3
97	14
98	0
99	6
100	1
101	1
103	7
105	122
107	186
108	71
109	69
111	20
113	4
114	0
115	10
117	33
119	81
121	134
123	67
124	2
125	5
127	1
128	9
129	14
131	46
133	105
135	102
136	3
137	17
138	0
139	2
141	4
142	1
143	16
145	63
147	107
149	65
151	13
153	3
154	0
155	4
157	15
159	98
161	100
162	12
163	31
165	7
167	1
169	4
171	14
172	2
173	40
174	9
175	20
177	13
178	0
179	5
181	1
183	5
185	16
187	30
189	26
191	14
192	1
193	1
195	1
197	5
198	0
199	19
201	26
203	17
205	15
206	1
209	1
211	9
213	18
215	73
216	16
217	41
218	4
219	1
220	0
223	2
225	8
227	10
229	146
230	35
231	6
233	2
235	0
237	1
238	0
239	5
241	20
243	8
244	1
245	4
246	0
247	1
251	2
253	5
254	0
255	48
257	47
258	8
259	1
261	1
263	1
265	4
267	5
269	9
271	5
272	1
273	2
274	4
275	5
276	2
277	1
279	6
281	41
282	6
283	18
284	1
285	8
286	1
287	0
288	2
289	8
290	2
293	1
295	2
297	20
298	13
299	171
300	40
301	8
302	2
303	0
307	0
309	1
311	1
313	2
314	0
315	16
316	4
317	2
319	0
321	1
322	0
323	2
324	1
325	2
326	1
329	6
330	1
335	2
336	0
337	2
338	0
341	11
342	1
343	11
344	4
345	18
346	4
347	1
349	0
357	11
358	45
359	103
360	22
361	11
362	1
363	8
364	1
365	5
366	1
377	1
378	71
379	13
380	71
381	22
382	7
383	3
384	0
395	0
397	0
402	0
404	0
406	0
419	0
421	0
423	0
437	2
438	15
439	7
440	16
441	6
442	3
443	1
