Mass Spectrum: Diselenide, dicyclopentyl-
Formula: C10H18Se2
CAS: 62212-26-4
Molecular weight: 298
m/z	intensity
39	110
40	30
41	460
42	30
53	40
55	40
65	30
67	250
68	70
69	999
70	60
83	50
147	30
149	50
156	30
158	50
160	60
162	40
224	20
226	50
227	30
228	80
230	90
232	30
294	30
295	20
296	50
298	60
300	20
