Mass Spectrum: trans-4-tert-butylcycloheptanol
Formula: C11H22O
CAS: 6221-53-0
Molecular weight: 170
m/z	intensity
57	999
67	400
81	430
95	720
96	290
109	85
113	280
124	14
141	14
152	64
153	22
155	23
168	9
170	2
