Mass Spectrum: N-[2-[1-Piperazyl]ethyl]-N'-[2-thiophosphatoethyl]-1,3-propanamine
Formula: C11H27N4O3PS
CAS: 62220-23-9
Molecular weight: 326
m/z	intensity
41	180
42	368
43	219
44	743
45	131
46	43
47	100
48	49
49	9
50	7
51	5
52	8
53	13
54	59
55	135
56	621
57	149
58	618
59	111
60	140
61	95
62	16
63	11
64	46
65	11
66	13
67	12
68	43
69	47
70	510
71	89
72	125
73	33
74	7
75	40
76	7
77	9
78	11
79	12
80	15
81	17
82	50
83	63
84	182
85	101
86	74
87	94
88	62
89	15
90	65
91	10
92	10
93	9
94	25
95	15
96	38
97	104
98	120
99	999
100	162
101	51
102	49
103	12
104	75
105	11
106	12
107	6
108	7
109	12
110	23
111	64
112	150
113	235
114	53
115	36
116	62
117	11
118	32
119	7
120	10
121	8
122	7
123	14
124	47
125	42
126	55
127	256
128	41
129	15
130	22
131	5
132	6
133	11
134	9
135	12
136	6
137	8
138	12
139	47
140	33
141	68
142	39
143	20
144	18
145	13
147	131
148	16
149	12
150	9
151	6
152	11
153	22
154	18
155	31
156	43
157	16
158	10
159	21
160	10
161	36
162	9
163	5
164	5
165	4
166	4
167	5
168	10
169	22
170	23
171	11
172	5
173	37
174	8
175	13
176	6
177	8
178	10
179	6
180	4
181	4
182	7
183	5
184	11
185	8
186	6
187	20
188	5
189	6
190	5
192	1
193	3
194	4
195	5
196	11
197	7
198	3
199	13
200	8
201	8
202	6
203	7
204	19
205	5
206	4
207	7
208	4
209	2
210	4
211	2
212	2
213	20
214	6
215	2
216	11
218	9
219	3
225	2
226	1
227	5
228	4
229	6
230	3
232	2
233	10
234	5
239	2
241	4
242	3
244	1
245	3
247	11
251	1
255	5
256	1
257	2
259	3
261	2
268	3
269	1
270	4
271	3
273	1
278	1
326	1
327	1
