Mass Spectrum: Acetic acid, trifluoro-, dodecyl ester
Formula: C14H25F3O2
CAS: 6222-00-0
Molecular weight: 282
m/z	intensity
15	2
26	5
27	95
28	32
29	229
30	7
31	3
33	4
37	1
39	122
40	29
41	735
42	204
43	891
44	34
45	3
47	6
50	7
51	9
52	4
53	63
54	106
55	989
56	498
57	784
58	35
59	4
61	3
63	1
65	11
66	13
67	143
68	194
69	999
70	507
71	296
72	15
73	1
77	8
78	8
79	16
80	6
81	69
82	315
83	674
84	361
85	171
86	11
87	2
91	3
93	2
94	1
95	24
96	118
97	560
98	222
99	94
100	4
101	1
109	5
110	52
111	307
112	126
113	21
114	1
115	5
121	1
123	2
124	19
125	116
126	53
127	18
128	1
137	2
138	12
139	26
140	104
141	13
142	1
151	1
152	6
153	2
155	3
165	3
166	4
168	61
169	9
170	2
179	1
180	1
193	2
194	1
195	3
196	1
207	1
213	43
214	6
264	3
