Mass Spectrum: Phosphorothioic acid, S-[2-[[(p-tolyl-dimethylsilyl)methyl]amino]ethyl] ester
Formula: C12H22NO3PSSi
CAS: 62220-27-3
Molecular weight: 319
m/z	intensity
41	60
42	28
43	482
44	563
45	201
46	13
47	35
50	16
51	29
52	5
53	66
55	97
56	117
57	126
59	259
60	17
61	215
62	10
63	51
65	69
66	5
67	44
69	55
70	17
71	26
73	197
74	46
75	37
77	70
79	55
81	70
82	58
83	35
84	13
85	5
86	52
88	105
89	22
90	128
91	392
92	161
93	60
95	41
96	15
97	18
98	21
100	999
101	80
102	58
103	31
105	217
106	17
107	45
109	24
111	7
114	74
115	18
116	11
117	42
118	12
119	117
121	135
122	18
123	23
125	5
129	13
131	57
132	57
133	108
134	25
135	86
136	12
137	4
139	11
144	14
145	39
146	71
148	98
149	889
150	122
151	51
153	9
155	15
158	12
159	3
162	24
164	81
165	14
167	14
169	49
171	2
173	3
174	7
176	17
178	104
179	27
181	32
190	11
192	613
193	91
194	29
196	86
197	14
198	3
204	7
206	89
207	45
208	8
209	18
211	61
213	14
215	10
223	5
224	12
225	8
231	23
236	4
238	24
239	3
240	51
241	6
242	3
245	39
246	3
250	6
251	4
271	58
272	3
273	8
275	4
287	35
288	6
289	3
299	18
300	3
301	3
304	2
318	5
319	42
320	6
321	3
