Mass Spectrum: 1-Dodecanol, heptafluorobutyrate
Formula: C16H25F7O2
CAS: 6222-08-8
Molecular weight: 382
m/z	intensity
15	2
26	4
27	91
28	30
29	235
30	7
31	6
33	2
37	1
39	110
40	29
41	723
42	204
43	927
44	36
45	4
47	3
50	4
51	7
52	4
53	59
54	106
55	999
56	513
57	902
58	40
59	2
61	2
62	1
63	1
65	11
66	13
67	152
68	207
69	971
70	508
71	399
72	22
73	1
77	7
78	5
79	18
80	5
81	78
82	351
83	698
84	366
85	249
86	16
87	1
90	1
91	3
93	6
94	2
95	23
96	136
97	551
98	226
99	55
100	45
101	1
109	23
110	58
111	323
112	133
113	31
114	2
119	33
120	1
121	1
123	2
124	22
125	136
126	62
127	13
128	1
131	5
137	1
138	10
139	36
140	120
141	13
142	1
147	2
150	6
151	1
153	1
159	1
165	1
166	2
168	131
169	241
170	9
178	1
195	4
197	24
198	1
199	2
213	24
214	3
215	5
227	3
238	1
241	1
252	1
255	2
364	2
