Mass Spectrum: 2-[3-[.alpha.-Furylmethylamino]propylamino]ethylthiophosphate
Formula: C10H23N2O4PS
CAS: 62220-13-7
Molecular weight: 298
m/z	intensity
41	178
42	171
43	319
44	999
45	39
46	6
47	7
48	2
49	13
50	11
51	6
53	9
54	15
55	57
56	157
57	103
58	380
59	30
60	16
61	47
62	1
63	4
64	6
65	1
67	26
68	36
69	24
70	302
71	120
72	87
73	11
74	10
75	13
76	4
77	1
79	3
80	6
81	17
82	26
83	30
84	129
85	94
86	28
87	161
88	83
89	10
90	74
91	5
92	5
93	7
94	5
95	9
96	21
97	32
98	28
99	34
100	51
101	175
102	148
103	8
104	162
105	10
106	12
108	9
110	11
111	8
112	30
113	27
114	287
115	56
116	58
117	8
118	15
119	2
120	4
122	4
123	2
124	6
125	5
126	17
127	8
128	310
129	28
130	10
131	3
132	5
133	36
134	30
135	10
136	9
138	1
139	2
140	18
141	9
142	43
143	10
144	4
145	34
146	10
147	169
148	23
149	12
150	4
153	4
154	1
155	2
156	1
157	5
158	5
159	12
160	1
161	4
166	6
167	7
168	4
169	7
170	1
171	37
172	8
173	17
174	4
179	5
183	6
184	2
185	83
186	10
187	3
191	5
193	4
196	3
197	1
199	1
211	1
215	4
217	52
218	41
219	62
220	9
221	4
229	11
231	2
250	52
251	7
252	5
298	3
