Mass Spectrum: 1,6-Hexanediol, 2TMS derivative
Formula: C12H30O2Si2
CAS: 6222-22-6
Molecular weight: 262
m/z	intensity
25	0
26	3
27	29
28	7
29	48
30	2
31	14
32	0
33	0
36	1
37	1
38	1
39	29
40	4
41	208
42	19
43	84
44	37
45	190
46	13
47	105
48	5
49	3
50	1
51	2
52	3
53	15
54	29
55	999
56	47
57	16
58	49
59	186
60	23
61	86
62	5
63	3
64	0
65	2
66	3
67	44
68	4
69	6
70	4
71	12
72	26
73	610
74	59
75	513
76	37
77	25
78	0
79	5
80	0
81	23
82	158
83	404
84	26
85	16
86	3
87	23
88	11
89	23
90	2
91	3
92	0
93	0
95	0
96	0
97	4
98	1
99	36
100	4
101	57
102	7
103	162
104	15
105	9
106	0
107	0
109	0
111	2
112	0
113	8
114	1
115	18
116	42
117	16
118	2
119	7
120	1
121	0
122	1
123	0
124	0
125	0
127	7
128	1
129	69
130	9
131	78
132	9
133	65
134	9
135	6
136	0
139	0
141	0
142	3
143	14
144	5
145	2
147	539
148	84
149	139
150	18
151	8
152	0
155	1
157	81
158	10
159	5
160	0
161	0
163	1
165	2
171	1
172	18
173	3
174	0
175	0
177	35
178	5
179	2
231	1
247	4
248	0
