Mass Spectrum: Decane, 2,2,6-trimethyl-
Formula: C13H28
CAS: 62237-97-2
Molecular weight: 184
m/z	intensity
25	0
26	1
27	30
29	84
35	0
36	0
39	18
40	5
41	153
42	21
43	229
44	1
50	0
52	0
53	5
54	2
55	55
56	486
57	999
58	39
67	2
68	0
69	17
70	14
71	145
72	5
79	0
82	0
83	3
84	17
85	76
86	5
91	2
97	1
98	1
99	19
100	0
112	2
113	12
114	1
119	0
126	27
127	30
128	2
169	11
170	0
