Mass Spectrum: 3-Penten-1-ol, 2-methyl-
Formula: C6H12O
CAS: 62238-37-3
Molecular weight: 100
m/z	intensity
24	2
25	1
26	14
27	119
28	73
29	98
30	9
31	85
32	4
33	0
34	0
35	1
36	1
37	12
38	17
39	183
40	33
41	999
42	94
43	73
44	8
45	13
49	1
50	11
51	19
52	8
53	65
54	24
55	110
56	43
57	44
58	44
59	3
61	1
62	2
63	6
64	0
65	18
66	7
67	136
68	56
69	618
70	119
71	66
72	3
73	0
74	0
75	0
77	4
78	1
79	7
80	1
81	8
82	84
83	8
84	0
85	8
98	0
100	27
101	1
