Mass Spectrum: 2H-1-Benzopyran-3(4H)-one, 2-phenyl-, oxime
Formula: C15H13NO2
CAS: 62232-16-0
Molecular weight: 239
m/z	intensity
50	190
51	430
52	180
63	300
77	600
78	320
89	570
90	190
91	370
105	260
106	180
107	999
115	440
116	430
131	300
133	190
145	220
221	180
222	960
223	210
239	630
240	120
