Mass Spectrum: Benzenepentanal, .beta.-hydroxy-.delta.-methyl-.alpha.-propyl-
Formula: C15H22O2
CAS: 62238-20-4
Molecular weight: 234
m/z	intensity
27	38
28	188
29	44
30	3
31	2
32	17
34	1
38	0
39	22
40	3
41	71
42	6
43	999
44	27
45	14
47	0
49	0
50	3
51	17
52	6
53	18
54	2
55	35
56	5
57	62
58	112
59	7
60	1
63	5
64	2
65	18
66	3
67	13
68	3
69	15
70	3
71	103
72	10
73	1
74	1
75	1
76	2
77	96
78	35
79	135
80	10
81	8
82	1
83	12
84	2
85	51
86	5
87	5
89	8
90	3
91	202
92	15
93	8
95	11
96	2
97	5
98	3
99	3
100	53
101	7
102	8
103	77
104	28
105	578
106	174
107	15
108	1
109	5
110	3
111	29
112	4
113	2
114	0
115	25
116	11
117	68
118	20
119	5
120	4
121	8
123	5
124	1
125	10
126	3
127	10
128	42
129	270
130	29
131	129
132	13
133	2
134	68
135	8
136	0
137	0
138	2
139	2
141	16
142	8
143	81
144	11
145	30
146	5
149	3
150	0
151	1
152	1
153	3
154	6
155	6
156	2
157	11
158	7
159	49
160	7
161	1
164	0
165	1
167	3
168	1
169	20
170	3
171	3
172	6
173	122
174	16
175	1
177	0
178	1
179	0
181	1
182	0
183	2
184	0
185	0
187	98
188	13
189	2
197	0
198	2
199	1
200	0
201	36
202	4
205	1
207	2
209	0
215	2
216	95
217	19
218	1
220	0
223	0
225	0
226	0
234	0
