Mass Spectrum: Decane, 2,3,8-trimethyl-
Formula: C13H28
CAS: 62238-14-6
Molecular weight: 184
m/z	intensity
22	2
26	9
27	70
29	173
37	0
39	38
41	277
42	64
43	822
44	11
46	2
53	16
54	5
55	146
56	78
57	999
58	28
67	8
68	0
69	78
70	266
71	726
72	29
83	34
84	28
85	450
86	21
97	5
98	10
99	93
100	2
110	21
111	146
112	18
113	10
140	41
141	115
142	9
