Mass Spectrum: Cyclohexane, 1-ethyl-1,4-dimethyl-, trans-
Formula: C10H20
CAS: 62238-32-8
Molecular weight: 140
m/z	intensity
24	1
26	5
27	90
29	126
30	2
32	0
34	0
36	0
38	2
39	97
40	16
41	316
42	38
43	86
44	2
45	0
46	0
47	0
48	0
49	0
50	3
51	10
52	5
53	46
54	21
55	607
56	48
57	83
58	5
59	0
60	0
62	0
63	2
64	0
65	11
66	4
67	55
68	35
69	999
70	96
71	15
72	0
73	0
77	9
78	3
79	10
80	2
81	23
82	14
83	102
84	16
85	0
91	4
92	0
93	1
94	0
95	44
96	3
97	1
107	0
109	2
110	129
111	653
112	58
113	1
125	27
126	2
140	0
