Mass Spectrum: Phosphine, (1,1-dimethylethyl)[5-methyl-2-(1-methylethyl)cyclohexyl]-, (1.alpha.,2.beta.,5.alpha.)-
Formula: C14H29P
CAS: 62238-17-9
Molecular weight: 228
m/z	intensity
24	1
25	1
26	4
27	80
28	31
29	195
30	5
31	27
32	1
33	1
34	2
35	2
36	2
37	6
38	5
39	78
40	27
41	427
42	30
43	161
44	6
45	29
46	4
47	15
48	18
49	21
50	5
51	9
52	4
53	46
54	23
55	336
56	49
57	999
58	44
59	45
60	6
61	125
62	41
63	8
64	1
65	13
66	8
67	85
68	26
69	241
70	19
71	46
72	5
73	39
74	12
75	17
76	16
77	25
78	7
79	33
80	18
81	196
82	51
83	399
84	30
85	14
86	4
87	18
88	18
89	32
90	31
91	130
92	8
93	16
94	17
95	210
96	42
97	69
98	6
99	8
100	3
101	18
102	116
103	24
104	64
105	7
106	1
107	4
108	1
109	17
110	5
111	3
112	2
113	4
114	2
115	24
116	131
117	95
118	13
119	2
121	3
122	1
123	41
124	5
125	2
126	0
127	2
128	2
129	29
130	30
131	11
132	4
133	1
134	0
135	0
136	1
137	20
138	63
139	52
140	6
141	0
142	0
143	8
144	13
145	4
146	8
147	2
149	1
151	0
153	0
155	3
156	0
157	20
158	39
159	26
160	3
165	0
166	0
168	0
169	1
170	5
171	87
172	118
173	19
174	1
175	0
177	0
179	0
183	0
184	0
185	35
186	9
187	0
191	0
199	1
200	1
207	4
208	1
209	0
213	20
214	2
226	0
227	7
228	71
229	9
230	0
