Mass Spectrum: 1-Methylestradiol diacetate
Formula: C23H30O4
CAS: 6223-93-4
Molecular weight: 370
m/z	intensity
41	68
43	999
44	18
45	5
47	3
49	14
51	9
52	0
53	23
55	90
57	24
59	1
61	0
63	2
65	14
66	0
67	27
69	22
71	11
77	30
78	2
79	42
81	55
82	6
83	17
84	9
85	7
86	4
89	2
91	66
92	5
93	39
94	2
95	28
97	11
99	2
102	3
103	8
104	1
105	29
106	6
107	50
108	14
109	16
110	2
111	5
113	0
115	34
116	12
117	22
118	1
119	22
121	65
122	11
123	4
125	3
127	19
128	29
129	25
130	10
131	35
132	15
133	22
134	17
135	18
136	2
137	0
139	1
141	23
142	11
143	16
144	20
145	91
146	21
147	170
148	18
149	3
151	4
152	6
153	10
154	6
155	25
156	14
157	32
158	48
159	78
160	161
161	46
162	7
163	3
165	11
166	4
167	5
168	7
169	11
170	2
171	62
172	45
173	114
174	54
175	10
177	5
178	5
179	6
180	2
181	8
182	4
183	8
184	10
185	25
186	71
187	22
188	2
189	12
190	3
191	3
192	2
193	4
194	3
195	8
196	4
197	13
198	9
199	18
200	10
201	5
202	2
203	3
205	0
207	5
208	4
209	7
210	4
211	21
212	10
213	11
214	2
215	6
216	2
221	3
222	3
223	5
224	2
225	24
226	11
227	32
228	8
229	3
235	7
236	1
237	3
239	42
240	26
241	3
242	8
243	0
249	2
250	19
251	28
252	2
253	36
254	5
265	0
266	2
267	13
268	25
269	10
270	2
271	3
281	0
284	0
285	2
286	3
293	0
295	2
300	0
310	124
311	30
312	3
313	4
314	2
325	1
326	3
327	3
328	512
329	112
330	14
331	1
339	0
344	1
356	0
368	1
369	5
370	37
371	9
372	1
