Mass Spectrum: 2-Hexanone, 3-[hydroxy(2-nitrophenyl)methyl]-
Formula: C13H17NO4
CAS: 62238-21-5
Molecular weight: 251
m/z	intensity
26	20
27	76
28	278
29	150
30	12
31	8
32	18
34	0
37	1
38	5
39	69
40	9
41	180
42	25
43	999
44	28
45	10
46	1
47	1
48	0
49	1
50	40
51	156
52	14
53	18
54	7
55	46
56	12
57	156
58	457
59	31
60	1
62	2
63	13
64	11
65	100
66	26
67	15
68	2
69	7
70	4
71	579
72	42
73	4
74	6
75	19
76	51
77	211
78	28
79	8
80	1
81	6
82	3
83	14
84	3
85	109
86	6
87	4
88	1
89	1
90	3
91	14
92	99
93	23
94	7
95	4
96	1
97	3
98	4
99	3
100	293
101	22
102	4
103	9
104	37
105	104
106	19
107	4
109	4
110	2
111	1
112	0
113	2
114	1
115	8
116	9
117	4
118	5
119	4
120	89
121	163
122	15
123	3
124	1
125	2
126	1
127	3
128	4
129	9
130	8
131	5
132	13
133	2
134	4
135	12
136	4
137	2
138	1
139	2
141	2
142	1
143	4
144	7
145	5
146	7
147	4
148	1
149	20
150	157
151	200
152	37
153	4
154	2
155	0
156	9
157	2
158	3
159	2
160	5
161	2
162	6
163	1
164	1
165	1
166	1
167	1
168	1
169	0
170	3
171	0
172	4
173	2
174	16
175	3
176	8
177	1
178	2
179	2
180	1
181	1
182	0
183	0
184	1
185	5
186	3
187	3
188	1
189	0
190	2
191	16
192	5
193	1
194	0
195	3
196	1
198	0
199	0
200	1
201	1
202	2
203	9
204	2
205	2
206	0
207	8
208	22
209	8
210	1
216	5
217	0
218	1
221	0
222	0
223	2
224	3
225	1
228	0
233	6
234	6
235	1
251	1
252	0
