Mass Spectrum: (3E,7E)-4,8,12-Trimethyltrideca-1,3,7,11-tetraene
Formula: C16H26
CAS: 62235-06-7
Molecular weight: 218
m/z	intensity
27	23
28	4
29	16
38	2
39	85
40	29
41	382
42	25
43	6
50	3
51	23
52	18
53	157
54	15
55	59
56	5
57	6
63	11
65	73
66	41
67	156
68	94
69	999
70	42
77	94
78	16
79	191
80	34
81	423
82	49
83	4
89	4
91	69
92	22
93	70
94	68
95	100
96	11
103	7
105	31
106	7
107	47
108	12
109	16
115	11
117	7
119	18
120	11
121	29
122	10
123	32
124	2
128	4
131	2
133	18
134	32
135	16
136	43
137	47
138	2
147	12
148	9
149	6
161	11
162	20
163	4
175	32
176	10
189	4
190	5
203	27
204	3
218	8
