Mass Spectrum: Cyclohexane, 1-ethyl-2-propyl-
Formula: C11H22
CAS: 62238-33-9
Molecular weight: 154
m/z	intensity
26	1
27	52
28	11
29	58
30	3
31	4
32	14
35	2
39	76
40	5
41	278
42	59
43	126
44	2
50	3
51	9
52	5
53	34
54	27
55	426
56	115
57	151
58	8
60	3
63	6
64	0
65	10
66	10
67	77
68	30
69	999
70	126
71	15
74	0
75	2
77	7
78	1
79	16
80	7
81	52
82	39
83	261
84	43
85	9
89	3
90	1
92	0
93	3
95	14
96	10
97	21
98	12
99	4
103	2
106	2
109	5
110	56
111	416
112	49
115	0
120	1
123	3
124	35
125	244
126	33
128	2
129	2
131	0
152	1
154	36
155	3
