Mass Spectrum: Decane, 2,3,7-trimethyl-
Formula: C13H28
CAS: 62238-13-5
Molecular weight: 184
m/z	intensity
22	2
26	10
27	81
28	5
29	125
30	0
32	4
33	2
37	1
39	43
40	2
41	262
42	63
43	999
51	2
53	12
54	2
55	160
56	118
57	849
58	34
67	2
69	69
70	154
71	712
72	32
81	1
83	10
84	134
85	491
86	23
96	25
97	89
98	30
99	87
112	16
113	5
140	57
141	134
142	12
