Mass Spectrum: 2-Decanamine, N-butyl-
Formula: C14H31N
CAS: 62238-18-0
Molecular weight: 213
m/z	intensity
26	3
27	4
28	67
29	19
30	108
31	1
32	5
34	0
39	4
40	0
41	34
42	13
43	31
44	135
45	3
50	0
51	0
52	0
53	1
54	1
55	27
56	19
57	50
58	99
59	4
63	0
64	0
65	2
66	0
67	2
68	1
69	13
70	12
71	18
72	14
73	2
74	5
75	0
76	0
77	1
78	0
79	0
81	2
82	1
83	7
84	15
85	6
86	5
87	0
91	0
92	2
93	0
95	1
96	1
97	2
98	24
99	3
100	999
101	76
102	2
105	0
106	0
108	0
109	0
110	0
111	1
112	5
113	6
114	1
119	0
120	2
121	3
122	0
123	0
124	0
126	6
127	1
128	0
131	0
137	0
138	0
139	0
140	4
141	0
142	4
143	0
146	0
149	1
150	0
151	0
154	2
155	0
156	6
157	1
166	0
167	0
168	14
169	1
170	34
171	4
172	0
178	0
182	1
183	0
184	1
196	1
198	61
199	9
200	0
205	0
207	1
208	0
211	0
212	5
213	6
214	2
