Mass Spectrum: 1,6-Heptadiene, 2,5,5-trimethyl-
Formula: C10H18
CAS: 62238-28-2
Molecular weight: 138
m/z	intensity
24	3
25	2
26	9
27	178
28	13
29	155
30	2
32	0
33	1
36	1
37	9
38	6
39	212
40	44
41	999
42	72
43	108
44	1
50	25
51	24
52	12
53	114
54	35
55	555
56	41
57	23
58	1
59	0
62	1
63	6
64	1
65	26
66	17
67	342
68	152
69	760
70	276
71	29
72	0
73	0
75	2
77	24
78	4
79	35
80	10
81	223
82	243
83	82
84	6
89	0
91	12
92	2
93	12
94	15
95	407
96	67
97	6
103	0
105	2
107	1
108	1
109	49
110	32
111	6
119	0
121	0
123	86
124	8
138	6
