Mass Spectrum: 4,7,9-Decatrien-2-amine, N-butyl-
Formula: C14H25N
CAS: 62238-22-6
Molecular weight: 207
m/z	intensity
27	8
28	95
29	35
30	14
31	0
32	11
35	0
36	6
38	1
39	6
40	1
41	49
42	14
43	7
44	345
45	8
50	1
51	1
52	0
53	4
54	2
55	14
56	25
57	48
58	119
59	3
63	0
65	6
66	2
67	15
68	4
69	5
70	8
71	3
72	2
73	0
77	10
78	4
79	14
80	3
81	4
82	5
83	2
84	8
85	1
86	0
91	18
92	2
93	8
94	2
95	2
96	4
97	2
98	9
99	1
100	999
101	69
102	2
103	0
104	0
105	4
106	2
107	3
108	1
109	1
110	1
111	1
112	1
113	0
115	0
116	0
117	1
119	1
120	0
121	0
122	0
123	0
124	1
125	1
126	1
127	0
131	0
132	0
134	0
135	1
136	0
137	0
138	2
139	1
140	0
145	0
146	0
147	0
148	0
149	1
150	0
151	0
152	0
162	0
164	7
165	1
166	0
167	0
175	0
176	0
178	0
179	0
188	0
190	0
192	2
193	0
205	0
206	1
207	0
208	2
