Mass Spectrum: Tricyclo[3.2.2.0(2,4)]non-8-ene-6,6,7,7-tetracarbonitrile
Formula: C13H8N4
CAS: 62249-53-0
Molecular weight: 220
m/z	intensity
27	103
28	58
29	1
30	0
31	2
32	4
36	1
37	15
38	62
39	227
40	37
41	26
42	1
43	3
44	7
45	19
46	5
48	1
49	5
50	59
51	97
52	43
53	18
54	2
55	0
56	0
57	0
58	0
60	1
61	12
62	38
63	80
64	41
65	152
66	26
67	1
69	0
70	0
73	2
74	9
75	26
76	74
77	38
78	14
79	4
80	0
83	0
84	0
85	2
86	6
87	10
88	14
89	29
90	37
91	754
92	999
93	67
94	3
98	0
99	3
100	8
101	14
102	23
103	17
104	2
105	0
106	0
109	0
110	0
111	1
112	2
113	7
114	11
115	6
116	3
117	1
118	0
121	0
123	0
124	1
125	1
126	3
127	7
128	34
129	9
130	2
132	0
137	1
138	3
139	8
140	14
141	7
142	3
143	1
148	0
149	2
150	1
151	2
152	2
153	2
154	2
155	13
156	2
164	1
165	8
166	6
167	5
168	1
177	0
178	1
180	0
181	0
191	1
192	1
193	4
194	1
202	0
205	0
206	0
218	0
219	3
220	1
223	0
