Mass Spectrum: N,N'-Dibenzylimidazole-4,5-dicarboxamide
Formula: C19H18N4O2
CAS: 62255-05-4
Molecular weight: 334
m/z	intensity
26	2
27	15
28	44
29	2
30	7
37	1
38	4
39	13
40	6
41	10
42	2
43	4
44	6
50	7
51	17
52	6
53	4
54	1
55	2
56	1
57	2
62	2
63	8
64	4
65	60
66	11
67	11
68	50
69	5
70	1
71	2
74	2
75	3
76	10
77	34
78	14
79	61
80	5
81	1
83	1
85	1
89	13
90	8
91	332
92	35
93	8
94	9
95	25
96	18
97	2
99	1
101	1
102	3
103	24
104	31
105	17
106	999
107	102
108	9
109	1
111	2
115	1
116	3
117	5
118	13
119	2
120	45
121	14
122	2
123	13
124	2
127	2
128	5
129	7
130	3
131	1
132	4
133	4
138	22
139	1
141	1
142	1
143	2
144	23
145	4
150	2
153	1
154	3
155	9
156	4
157	3
158	4
165	1
167	3
168	1
170	9
171	8
172	6
173	1
178	1
179	2
180	1
181	2
182	9
183	17
184	9
185	2
186	1
195	1
196	2
197	2
198	11
199	7
200	64
201	11
202	2
206	1
207	2
208	5
209	2
210	1
211	3
212	1
215	3
225	6
226	27
227	8
228	7
229	15
230	2
243	278
244	42
245	4
287	1
291	2
316	4
317	9
318	2
334	436
335	101
336	12
337	1
