Mass Spectrum: 1,3-Cyclohexanedione, 2-(2-phenylethyl)-
Formula: C14H16O2
CAS: 62264-41-9
Molecular weight: 216
m/z	intensity
26	7
27	84
28	32
29	20
30	8
31	4
36	6
38	8
39	83
40	17
41	86
42	88
43	62
44	15
45	4
50	11
51	39
52	12
53	20
54	12
55	279
56	71
57	13
58	7
62	5
63	24
64	8
65	87
66	10
67	15
68	10
69	42
70	17
71	8
75	5
76	5
77	38
78	32
79	43
80	5
81	13
82	8
83	30
84	41
85	8
87	3
89	18
90	8
91	201
92	170
93	16
95	6
96	4
97	66
98	9
99	9
102	6
103	23
104	999
105	99
106	6
107	5
112	6
114	7
115	33
116	11
117	21
119	5
124	4
125	205
126	21
127	9
128	7
129	6
131	3
140	10
142	4
144	3
145	10
146	3
155	3
160	3
170	3
187	2
198	4
199	3
201	2
216	90
217	18
