Mass Spectrum: Iron, tricarbonyl[(1,2-.eta.)-2,3-dimethyl-1,3-butadiene][(2,3-.eta.)-methyl 2-propenoate]-
Formula: C13H16FeO5
CAS: 62265-42-3
Molecular weight: 308
m/z	intensity
27	237
28	999
29	29
30	8
31	27
32	6
33	0
37	0
38	3
39	164
40	43
41	185
42	74
43	22
44	8
45	5
49	0
50	5
51	12
52	10
53	52
54	84
55	427
56	64
57	11
58	37
59	20
60	1
62	0
63	4
64	1
65	39
66	13
67	285
68	24
69	12
70	1
71	16
72	0
73	2
74	3
75	0
76	0
77	16
78	4
79	27
80	4
81	38
82	198
83	23
84	74
85	61
86	23
87	24
88	10
89	0
90	0
91	17
92	3
93	21
94	6
95	13
96	58
97	32
98	8
99	2
102	0
103	1
104	1
105	10
106	5
107	14
108	8
109	10
110	37
111	17
112	13
113	5
114	79
115	6
116	0
117	1
118	1
119	3
120	6
121	10
122	85
123	15
124	24
125	16
126	3
127	13
128	2
129	0
131	0
132	2
133	2
134	6
135	12
136	29
137	29
138	406
139	62
140	12
141	4
142	83
143	8
144	1
145	0
146	1
147	4
148	11
149	8
150	6
151	3
152	6
153	3
154	3
155	1
156	4
157	1
158	0
159	0
160	2
161	6
162	22
163	12
164	13
165	15
166	63
167	8
168	9
169	8
170	12
171	1
172	0
173	1
174	0
175	0
176	1
177	1
178	4
179	2
180	3
181	10
182	2
183	0
184	0
190	2
191	3
192	11
193	12
194	20
195	4
196	5
197	1
198	0
199	2
200	1
203	0
205	0
206	0
207	3
208	2
209	24
210	3
211	0
212	0
213	0
219	0
220	0
221	11
222	38
223	6
224	494
225	68
226	7
227	1
228	5
229	0
236	0
248	0
249	3
250	5
251	1
252	75
253	10
254	3
255	0
256	0
275	0
277	6
278	1
279	0
280	7
281	1
282	0
284	0
308	1
309	0
310	1
311	0
