Mass Spectrum: 1-Hydroxy-4-(1-hydroxyiminoethyl)-2,2,5,5-tetramethyl-3-imidazoline-3-oxide
Formula: C9H17N3O3
CAS: 62287-14-3
Molecular weight: 215
m/z	intensity
38	4
39	70
40	15
41	171
42	191
43	118
44	9
45	2
50	3
51	7
52	7
53	80
54	31
55	27
56	92
57	23
58	276
59	53
60	3
63	2
64	2
65	16
66	18
67	58
68	39
69	33
70	59
71	12
72	3
73	12
74	999
75	38
76	3
77	13
78	3
79	22
80	32
81	33
82	27
83	16
84	17
85	48
86	3
92	2
98	25
99	5
100	1
101	2
105	2
107	6
108	16
109	13
110	9
111	114
112	265
113	24
114	2
120	1
121	2
122	4
123	3
124	3
125	183
126	36
127	18
128	2
133	1
134	2
135	5
136	6
137	3
138	1
141	92
142	409
143	44
144	4
148	2
149	3
150	5
151	10
152	2
153	9
164	1
165	1
166	10
167	13
168	7
169	13
170	2
181	1
182	2
183	2
184	9
185	2
186	1
198	4
199	13
200	9
201	1
214	5
215	235
216	35
217	4
