Mass Spectrum: 4-Heptanone, 2,3:5,6-diepoxy-2,6-dimethyl-
Formula: C9H14O3
CAS: 6228-86-0
Molecular weight: 170
m/z	intensity
26	13
27	113
28	13
29	54
30	2
31	19
37	2
38	7
39	157
40	21
41	303
42	62
43	999
44	29
45	6
50	3
51	4
52	2
53	19
54	27
55	111
56	12
57	186
58	341
59	417
60	10
61	1
63	0
65	2
66	3
67	6
68	1
69	31
70	23
71	87
72	159
73	14
74	0
76	0
77	1
79	1
81	2
82	3
83	353
84	42
85	21
86	2
87	7
88	6
89	10
91	2
93	1
94	1
95	6
96	0
97	68
98	5
99	14
100	5
101	42
102	2
104	1
105	1
109	3
110	0
111	10
112	29
113	68
114	6
115	6
116	1
119	1
121	0
122	0
123	2
124	1
125	0
126	0
127	3
128	0
129	0
130	0
135	0
136	0
137	2
141	7
142	3
152	1
155	12
156	1
169	0
170	2
