Mass Spectrum: 4(axial)-Ethenyl-1,2(equatorial)-dimethyl-trans-decahydroquinol-4-ol,N-oxide
Formula: C13H23NO2
CAS: 62299-73-4
Molecular weight: 225
m/z	intensity
51	14
52	2
53	51
54	38
55	356
56	187
57	103
58	570
59	14
60	7
65	15
66	9
67	122
68	31
69	188
70	90
71	44
72	49
73	35
74	999
75	15
77	48
78	7
79	65
80	14
81	122
82	35
83	31
84	49
85	219
86	34
87	10
91	74
92	11
93	52
94	17
95	32
96	36
97	82
98	18
99	7
105	51
106	9
107	7
108	6
109	43
110	30
111	10
112	57
113	6
118	53
124	14
125	5
126	52
127	22
133	18
134	19
135	7
136	15
137	30
138	24
152	20
161	31
162	11
164	15
166	85
167	10
168	11
178	3
180	20
182	40
190	14
192	34
193	6
194	83
195	14
207	23
208	22
209	27
210	82
225	111
226	16
227	1
