Mass Spectrum: 4(axial)-Ethynyl-1,2(equatorial)-dimethyl-trans-decahydroquinol-4-ol,N-oxide
Formula: C13H21NO2
CAS: 62299-69-8
Molecular weight: 223
m/z	intensity
51	14
53	93
54	38
55	60
56	246
57	156
58	444
59	8
60	13
65	32
67	133
68	46
69	67
70	82
71	32
72	42
73	70
74	999
75	20
77	77
78	16
79	108
81	134
82	85
83	11
91	96
93	36
94	29
95	98
96	46
97	21
98	19
102	20
104	51
107	8
108	27
109	35
110	71
111	21
114	19
116	73
120	13
121	20
123	101
125	21
129	11
131	63
132	13
137	33
147	19
148	14
150	45
152	19
159	60
160	5
162	35
164	247
165	21
166	8
168	13
176	17
178	42
180	54
182	42
187	14
188	46
190	83
191	17
192	215
193	32
194	17
204	39
206	55
207	71
208	162
209	8
210	29
223	211
224	31
225	2
