Mass Spectrum: 4(equat)-Ethynyl-1,2(equatorial)-dimethyl-trans-decahydroquinol-4-ol,N-oxide
Formula: C13H21NO2
CAS: 62299-71-2
Molecular weight: 223
m/z	intensity
55	13
56	84
57	161
58	524
59	16
67	24
68	7
69	168
70	26
71	13
72	6
73	16
74	999
75	35
79	9
81	26
82	29
83	12
91	19
93	21
94	16
95	39
96	30
97	7
105	33
107	19
109	19
110	110
111	13
112	26
117	105
123	9
124	87
125	16
126	76
131	73
132	33
133	30
134	13
135	32
138	30
143	13
144	53
148	16
149	15
150	27
153	33
158	10
159	380
160	24
161	18
162	21
164	196
165	19
166	15
172	21
174	27
175	21
176	29
177	13
178	39
179	12
180	18
186	18
187	75
188	239
189	49
190	122
192	197
193	38
205	619
206	197
207	184
208	358
209	39
223	76
224	11
225	1
