Mass Spectrum: Crotonic anhydride
Formula: C8H10O3
CAS: 623-68-7
Molecular weight: 154
m/z	intensity
15	4
25	1
26	6
27	7
28	3
29	3
36	1
37	11
38	30
39	256
40	39
41	293
42	16
43	1
44	2
45	2
50	1
53	6
54	1
55	1
66	1
67	2
68	16
69	999
70	44
71	3
85	3
86	1
95	5
109	1
126	86
127	7
128	1
