Mass Spectrum: 2-Cyclopentene-1-tridecanoic acid, ethyl ester, (S)-
Formula: C20H36O2
CAS: 623-32-5
Molecular weight: 308
m/z	intensity
29	27
39	28
41	105
42	20
43	45
53	23
55	140
57	31
60	47
61	38
65	34
66	76
67	999
68	93
69	76
70	38
73	50
77	19
79	69
80	154
81	137
82	198
83	77
84	27
85	15
88	100
89	21
93	43
94	27
95	171
96	55
97	68
101	115
102	9
109	69
110	32
111	21
115	16
121	50
122	15
123	53
125	18
137	27
138	18
139	14
143	20
155	11
157	21
163	54
164	8
181	41
182	7
199	16
206	6
227	82
228	20
234	13
235	5
241	7
261	7
262	121
263	84
264	17
265	8
279	13
308	24
309	4
