Mass Spectrum: Benzenemethanol, 4-hydroxy-
Formula: C7H8O2
CAS: 623-05-2
Molecular weight: 124
m/z	intensity
12	1
13	2
14	6
15	9
16	3
17	3
18	10
19	1
24	1
25	7
26	55
27	114
28	17
29	119
30	9
31	59
32	2
36	7
37	60
38	116
39	458
40	67
41	167
42	19
43	26
44	3
45	1
46	3
47	6
48	5
49	37
50	208
51	341
52	203
53	99
54	12
55	99
56	4
57	2
60	8
61	48
62	79
63	144
64	43
65	256
66	107
67	165
68	19
69	9
70	1
71	1
72	1
73	14
74	51
75	30
76	24
77	905
78	736
79	166
80	14
81	23
82	3
83	1
84	2
85	4
86	6
87	4
88	1
89	7
90	4
91	3
92	9
93	66
94	63
95	999
96	83
97	6
104	1
105	172
106	397
107	527
108	61
109	4
110	1
121	70
122	21
123	499
124	868
125	70
126	6
