Mass Spectrum: Carbonodithioic acid, S,S-diethyl ester
Formula: C5H10OS2
CAS: 623-80-3
Molecular weight: 150
m/z	intensity
43	5
44	44
45	101
46	101
47	235
48	5
49	11
58	56
59	101
60	78
61	241
62	174
63	28
64	28
66	56
75	123
76	56
89	999
90	44
91	56
93	39
94	78
122	348
123	22
124	22
150	634
151	50
152	73
