Mass Spectrum: Palmitic anhydride
Formula: C32H62O3
CAS: 623-65-4
Molecular weight: 494
m/z	intensity
18	2
26	1
27	44
28	10
29	84
30	2
31	1
39	32
40	7
41	215
42	46
43	272
44	9
45	10
51	1
52	1
53	17
54	35
55	369
56	85
57	271
58	15
59	9
60	177
61	50
62	2
65	3
66	5
67	60
68	52
69	192
70	111
71	182
72	11
73	252
74	27
75	2
77	4
78	2
79	22
80	16
81	61
82	61
83	262
84	237
85	135
86	11
87	78
88	15
89	1
91	4
92	2
93	20
94	16
95	53
96	59
97	232
98	999
99	111
100	10
101	47
102	20
103	2
105	2
107	11
108	8
109	31
110	30
111	190
112	240
113	55
114	7
115	79
116	32
117	3
119	2
121	19
122	6
123	17
124	20
125	62
126	35
127	33
128	5
129	213
130	36
131	3
135	13
136	5
137	10
138	17
139	27
140	16
141	23
142	4
143	56
144	20
145	2
149	8
150	2
151	6
152	13
153	15
154	14
155	12
156	3
157	109
158	21
159	2
163	4
164	1
165	5
166	9
167	10
168	13
169	5
170	1
171	104
172	17
173	2
177	3
178	1
179	1
180	2
181	7
182	9
183	4
184	1
185	109
186	16
187	2
191	2
192	1
194	29
195	15
196	20
197	12
198	2
199	52
200	10
201	1
208	1
209	5
210	5
211	2
212	1
213	172
214	28
215	3
219	3
220	11
221	4
222	1
223	2
224	1
227	48
228	10
229	1
236	4
237	9
238	35
239	233
240	40
241	6
242	3
252	1
253	1
254	7
255	10
256	376
257	76
258	9
265	1
266	1
267	3
268	1
270	1
280	8
281	2
282	1
283	2
284	3
294	1
296	1
298	9
299	2
308	1
310	1
324	1
326	5
327	1
340	2
494	2
