Mass Spectrum: Carbonic acid, bis(1-methylpropyl) ester
Formula: C9H18O3
CAS: 623-63-2
Molecular weight: 174
m/z	intensity
27	10
28	60
29	380
31	20
39	80
41	420
42	40
43	130
44	50
45	540
55	70
56	280
57	999
58	50
59	210
63	30
73	60
83	50
101	30
115	10
118	80
119	40
