Mass Spectrum: Silane, 1,2-ethanediylbis[trimethyl-
Formula: C8H22Si2
CAS: 6231-76-1
Molecular weight: 174
m/z	intensity
26	1
27	0
29	18
30	1
31	20
32	17
35	0
37	1
38	0
39	5
40	4
41	3
42	8
43	87
44	25
45	163
46	11
47	7
48	0
51	0
52	1
53	8
54	1
55	14
56	4
57	12
58	114
59	86
60	13
61	3
64	2
65	1
66	2
67	3
68	1
69	1
70	4
71	9
72	17
73	999
74	94
75	55
76	1
77	0
81	0
83	4
84	1
85	158
86	243
87	34
88	9
89	0
90	0
91	2
92	0
95	0
97	0
99	2
101	5
102	1
103	3
113	0
115	12
116	3
117	2
119	1
127	1
129	1
130	2
131	80
132	13
133	8
134	1
143	6
144	1
145	1
147	2
149	0
157	1
158	3
159	116
160	23
161	10
162	1
174	72
175	16
176	8
177	0
