Mass Spectrum: Aminocyanoacetic acid
Formula: C3H4N2O2
CAS: 6232-21-9
Molecular weight: 100
m/z	intensity
25	13
26	73
27	200
28	999
29	325
30	460
31	5
38	81
39	69
40	104
41	20
43	6
44	633
45	11
52	15
53	111
54	16
55	457
56	214
57	24
73	26
74	8
