Mass Spectrum: 1,4-Cyclohexadiene, 3-ethenyl-1,2-dimethyl-
Formula: C10H14
CAS: 62338-57-2
Molecular weight: 134
m/z	intensity
25	0
26	9
27	123
29	30
30	0
33	0
34	0
35	0
37	3
38	12
39	188
40	22
41	216
42	7
43	4
44	1
45	0
48	0
49	1
50	32
51	98
52	35
53	64
54	5
55	34
56	4
58	13
60	0
61	2
62	12
63	46
64	25
65	149
66	25
67	19
68	2
69	7
71	0
73	1
74	8
75	10
76	7
77	182
78	59
79	161
80	21
81	3
83	1
85	0
86	2
87	3
88	1
89	17
90	6
91	818
92	116
93	75
94	7
95	0
96	0
97	0
98	1
99	0
100	0
101	3
102	13
103	85
104	56
105	205
106	218
107	172
108	15
109	1
111	0
112	0
113	2
114	2
115	85
116	27
117	171
118	41
119	999
120	89
121	4
122	0
123	0
126	1
127	4
128	8
129	6
130	1
131	19
132	23
133	39
134	374
135	41
136	2
