Mass Spectrum: 2-Cyclohexene-1-carboxylic acid, 5-(2-butenyl)-, methyl ester
Formula: C12H18O2
CAS: 62338-58-3
Molecular weight: 194
m/z	intensity
25	0
26	8
27	92
28	97
29	90
30	6
31	9
32	4
33	149
34	1
35	0
36	0
37	2
38	5
39	103
40	14
41	97
42	7
43	13
44	26
45	35
46	1
47	0
48	0
49	1
50	14
51	38
52	26
53	62
54	27
55	241
56	17
57	64
58	4
59	128
60	4
61	35
62	2
63	8
64	3
65	33
66	14
67	106
68	14
69	11
70	2
71	7
72	1
73	2
74	3
75	5
76	2
77	134
78	76
79	999
80	152
81	111
82	17
83	4
84	1
85	3
86	0
87	90
88	5
89	3
90	2
91	68
92	44
93	122
94	17
95	11
96	3
97	6
98	2
99	1
100	8
101	1
102	1
103	4
104	3
105	34
106	15
107	98
108	38
109	6
110	2
111	41
112	4
113	3
114	1
115	5
116	2
117	7
118	3
119	23
120	7
121	5
122	1
123	3
124	1
125	2
126	1
127	2
128	2
129	3
130	1
131	2
132	2
133	9
134	132
135	181
136	22
137	61
138	49
139	117
140	25
141	3
142	0
143	0
144	2
145	27
146	4
147	2
148	0
149	0
150	0
151	2
152	48
153	5
154	0
160	0
161	1
162	35
163	17
164	2
165	9
166	1
167	0
173	0
179	0
180	0
192	0
193	1
194	66
195	9
196	0
