Mass Spectrum: Cyclobuta[1,2-b:4,3-b']dithiophene, octahydro-
Formula: C8H12S2
CAS: 62338-05-0
Molecular weight: 172
m/z	intensity
32	1
33	1
34	1
35	1
36	0
37	1
38	3
39	47
40	5
41	18
42	0
45	117
46	9
47	15
48	1
49	1
50	4
51	12
52	6
53	24
54	3
58	23
59	20
60	4
61	3
62	2
63	3
64	0
65	17
66	5
67	2
71	5
72	3
73	2
74	1
75	0
76	0
77	16
78	4
79	14
80	1
84	13
85	231
86	999
87	66
88	46
89	2
90	0
91	15
92	5
93	0
97	28
98	2
99	6
103	2
104	0
105	1
110	2
111	3
112	0
115	0
116	1
118	0
125	9
126	0
129	0
130	0
139	0
140	0
143	0
144	1
152	0
153	0
154	0
172	80
173	6
174	7
