Mass Spectrum: 1,5-Cycloundecadiene, 8,8-dimethyl-9-methylene-
Formula: C14H22
CAS: 62338-54-9
Molecular weight: 190
m/z	intensity
24	0
25	2
26	11
27	276
28	60
29	198
30	3
31	0
32	6
35	0
36	1
37	4
38	12
39	413
40	103
41	813
42	69
43	211
44	4
45	1
46	1
47	2
48	0
49	2
50	14
51	64
52	40
53	282
54	181
55	403
56	31
57	37
58	11
59	3
60	3
61	2
62	4
63	19
64	13
65	129
66	89
67	685
68	81
69	169
70	14
71	7
72	4
73	6
75	13
76	5
77	251
78	89
79	547
80	231
81	268
82	219
83	114
84	12
85	4
86	1
87	1
89	13
90	5
91	413
92	140
93	999
94	198
95	177
96	48
97	14
98	1
99	0
100	1
102	4
103	15
104	9
105	252
106	147
107	584
108	264
109	196
110	26
111	3
113	2
115	13
116	5
117	19
118	7
119	248
120	123
121	684
122	128
123	40
124	4
125	0
126	1
127	2
128	2
129	2
130	2
131	9
132	5
133	176
134	226
135	132
136	127
137	15
138	0
139	0
141	0
143	1
145	6
146	6
147	276
148	88
149	28
150	3
151	0
157	0
158	0
159	1
161	73
162	45
163	5
164	0
166	0
167	0
169	0
172	0
173	0
174	1
175	251
176	33
177	1
178	0
182	1
183	0
188	0
189	4
190	82
191	12
192	1
