Mass Spectrum: 1,5,9,11-Tridecatetraene, 12-methyl-, (E,E)-
Formula: C14H22
CAS: 62338-27-6
Molecular weight: 190
m/z	intensity
24	0
25	3
26	15
27	251
28	184
29	304
30	7
31	1
32	26
36	7
37	8
38	13
39	331
40	55
41	882
42	48
43	446
44	52
45	2
47	2
48	1
49	2
50	18
51	67
52	40
53	212
54	67
55	478
56	36
57	35
58	6
59	6
60	5
61	3
62	5
63	23
64	12
65	118
66	100
67	571
68	55
69	294
70	34
71	12
72	5
73	13
74	8
75	16
76	7
77	320
78	125
79	813
80	267
81	264
82	442
83	57
84	4
85	5
87	2
88	2
89	15
90	7
91	778
92	157
93	999
94	160
95	277
96	41
97	8
98	2
99	1
100	0
101	2
102	4
103	25
104	48
105	327
106	81
107	255
108	326
109	60
110	14
111	4
112	1
113	1
114	2
115	19
116	8
117	30
118	14
119	165
120	51
121	276
122	57
123	10
124	2
125	1
126	0
127	2
128	5
129	5
130	3
131	14
132	7
133	102
134	96
135	32
136	10
137	1
138	0
139	0
141	1
142	0
143	1
144	0
145	6
146	3
147	95
148	23
149	13
150	1
151	0
152	0
153	0
154	0
155	0
157	0
159	1
160	1
161	10
162	5
163	1
165	1
166	0
167	1
168	1
169	3
170	0
171	0
173	1
174	0
175	37
176	4
177	0
178	0
179	0
180	0
181	0
183	0
186	0
187	0
188	6
189	2
190	63
191	10
192	0
