Mass Spectrum: Bicyclo[2.2.1]heptane, 2-methyl-3-(1-methylethenyl)-
Formula: C11H18
CAS: 62337-89-7
Molecular weight: 150
m/z	intensity
39	455
40	92
41	817
42	66
43	92
44	35
50	24
51	85
52	44
53	268
54	68
55	367
56	32
57	12
58	6
59	5
60	2
62	5
63	26
64	11
65	135
66	171
67	855
68	159
69	141
70	7
71	5
72	2
73	2
74	1
75	11
76	2
77	213
78	70
79	682
80	999
81	658
82	506
83	258
84	28
85	7
89	4
91	181
92	46
93	562
94	532
95	316
96	48
97	4
102	4
103	12
104	4
105	56
106	14
107	335
108	812
109	136
110	13
115	6
116	3
117	7
118	1
119	5
120	7
121	439
122	202
123	21
135	306
136	33
137	3
149	4
150	169
151	23
