Mass Spectrum: Bicyclo[2.2.2]octane, 1,2,3,6-tetramethyl-
Formula: C12H22
CAS: 62338-45-8
Molecular weight: 166
m/z	intensity
25	2
26	14
27	187
28	125
29	238
30	6
31	2
32	7
33	0
34	1
35	1
36	15
37	1
38	7
39	154
40	31
41	432
42	42
43	145
44	13
45	0
47	0
48	1
49	0
50	4
51	21
52	9
53	97
54	29
55	367
56	60
57	44
58	5
59	1
60	1
61	0
62	0
63	5
64	2
65	27
66	13
67	280
68	312
69	260
70	46
71	15
72	1
73	1
74	1
75	2
76	1
77	44
78	11
79	52
80	14
81	237
82	231
83	78
84	22
85	6
87	0
88	0
89	1
90	1
91	34
92	5
93	36
94	12
95	330
96	105
97	61
98	15
99	1
103	1
104	0
105	6
106	2
107	12
108	157
109	999
110	309
111	43
112	4
113	3
115	1
116	0
117	0
118	0
119	1
120	0
121	4
122	2
123	96
124	49
125	4
126	0
127	0
129	0
130	0
135	2
136	1
137	95
138	16
139	0
140	0
141	0
142	0
144	0
149	0
151	22
152	2
154	0
157	0
165	1
166	66
167	8
