Mass Spectrum: 4,4'-Bi-1,3,2-dioxaborolane, 2,2'-diethyl-, (R*,S*)-
Formula: C8H16B2O4
CAS: 62337-94-4
Molecular weight: 198
m/z	intensity
26	4
27	8
28	13
29	25
30	0
31	2
36	0
38	0
39	12
40	7
41	29
42	39
43	157
44	7
45	6
50	0
51	0
52	0
53	3
54	9
55	22
56	23
57	49
58	6
59	4
61	0
65	0
66	1
67	4
68	8
69	29
70	55
71	53
72	2
73	1
77	0
79	0
80	0
81	2
82	7
83	25
84	20
85	11
86	1
87	2
88	0
89	0
91	1
92	0
95	1
96	5
97	95
98	563
99	999
100	47
101	6
102	1
103	0
105	0
108	0
109	2
110	11
111	47
112	53
113	25
114	2
115	0
116	1
117	0
122	0
123	3
124	10
125	10
126	1
127	1
128	0
129	0
137	1
138	10
139	21
140	4
141	7
142	2
143	1
152	0
153	2
154	5
155	6
156	0
157	0
158	0
165	0
166	0
167	2
168	10
169	19
170	1
171	0
172	1
180	0
183	0
196	1
197	6
198	14
199	1
