Mass Spectrum: 1,5-Cycloundecadiene, 9-(1-methylethylidene)-
Formula: C14H22
CAS: 62338-55-0
Molecular weight: 190
m/z	intensity
25	3
26	11
27	279
28	60
29	184
30	5
32	10
33	1
35	1
36	5
37	1
38	5
39	444
40	106
41	871
42	77
43	232
48	0
49	2
50	14
51	68
52	37
53	301
54	170
55	382
56	29
57	30
58	4
59	8
60	3
62	3
63	19
64	8
65	120
66	107
67	740
68	100
69	210
70	21
71	8
72	4
74	2
75	13
76	6
77	261
78	104
79	592
80	246
81	247
82	205
83	167
84	15
85	3
86	2
89	13
91	438
92	136
93	999
95	128
96	37
97	25
98	5
100	1
101	3
102	2
103	13
104	13
105	240
106	167
107	636
108	271
109	179
110	22
111	10
112	3
113	3
114	4
115	11
116	5
117	20
118	8
119	212
120	112
121	722
122	121
123	36
124	5
125	0
126	1
127	0
128	4
129	5
130	2
131	8
132	6
133	149
134	157
135	104
136	130
137	20
139	3
141	1
143	1
144	2
145	6
146	8
147	225
148	63
149	23
150	2
151	2
152	0
155	1
157	1
158	1
159	2
161	62
162	47
163	12
164	1
166	0
168	1
169	0
173	2
174	2
175	240
176	35
177	5
178	0
183	1
188	2
189	6
190	221
191	42
192	4
