Mass Spectrum: 4-Decene, 9-methyl-, (E)-
Formula: C11H22
CAS: 62338-49-2
Molecular weight: 154
m/z	intensity
24	1
25	3
26	9
27	198
29	253
30	4
32	0
36	4
37	4
38	5
39	156
40	26
41	656
42	149
43	547
44	3
45	1
46	1
47	2
50	4
51	14
52	10
53	65
54	104
55	776
56	999
57	432
58	18
59	0
62	1
63	1
65	11
66	5
67	88
68	58
69	632
70	239
71	49
72	0
75	0
77	7
78	5
79	10
80	2
81	25
82	14
83	170
84	78
85	22
86	0
87	2
91	2
92	1
94	2
95	6
96	10
97	45
98	45
99	4
100	1
103	0
109	3
110	5
111	32
112	8
113	1
119	0
120	1
125	3
126	14
127	2
132	1
134	0
139	6
140	2
141	0
147	0
154	94
155	10
