Mass Spectrum: Cycloundecane, (1-methylethyl)-
Formula: C14H28
CAS: 62338-56-1
Molecular weight: 196
m/z	intensity
25	2
26	13
27	162
28	28
29	347
30	4
31	0
32	0
33	1
36	6
37	4
39	127
40	35
41	801
42	162
43	636
44	16
46	0
47	0
49	4
50	2
51	9
52	2
53	67
54	90
55	924
56	780
57	999
58	43
60	2
61	2
62	1
65	11
66	12
67	136
68	110
69	762
70	450
71	261
72	11
73	1
74	0
75	2
77	9
79	12
80	5
81	137
82	142
83	769
84	215
85	122
86	10
90	1
91	4
92	0
93	1
94	2
95	95
96	114
98	77
99	14
100	1
103	0
105	4
106	0
107	1
108	2
109	31
110	56
111	143
112	33
113	4
116	0
117	1
119	0
122	0
123	9
124	15
125	22
126	9
127	3
128	2
134	0
137	95
138	54
139	33
140	47
141	5
143	1
147	0
149	0
150	0
151	10
152	44
153	81
154	16
155	3
157	0
167	3
168	26
169	4
170	2
173	0
175	0
179	0
180	0
181	10
183	1
184	0
187	0
189	1
193	0
194	1
196	47
197	5
198	2
