Mass Spectrum: Cyclohexane, 1,1,2-trimethyl-3,5-bis(1-methylethenyl)-, (2.alpha.,3.beta.,5.beta.)-
Formula: C15H26
CAS: 62337-97-7
Molecular weight: 206
m/z	intensity
25	2
26	104
27	224
28	281
29	311
30	10
36	2
37	6
38	11
39	300
40	70
41	999
42	93
43	313
44	6
45	1
46	2
48	2
49	6
50	24
51	45
52	28
53	249
54	44
55	576
56	40
57	234
58	6
59	3
62	2
63	11
64	7
65	95
66	35
67	511
68	129
69	448
70	231
71	52
72	4
73	2
74	4
75	4
76	4
77	172
78	37
79	314
80	151
81	479
82	221
83	323
84	50
85	16
88	1
89	6
90	3
91	197
92	52
93	477
94	189
95	500
96	128
97	44
98	5
99	2
102	2
103	12
104	6
105	86
106	26
107	642
108	188
109	303
110	58
111	30
115	8
116	6
117	10
118	3
119	35
120	18
121	430
122	488
123	421
124	51
125	11
128	2
129	2
130	2
131	2
133	13
134	5
135	206
136	110
137	132
138	52
139	4
145	1
147	6
148	7
149	132
150	150
151	46
152	5
162	4
163	223
164	56
165	8
175	2
177	28
178	16
179	1
191	242
192	36
193	3
194	1
206	61
207	8
