Mass Spectrum: 1,7-Dimethyl-4-(propan-2-ylidene)tricyclo[4.4.0.02,7]decan-3-one
Formula: C15H22O
CAS: 62332-96-1
Molecular weight: 218
m/z	intensity
26	1
27	36
28	6
29	38
30	1
31	1
37	1
38	5
39	172
40	42
41	286
42	27
43	70
44	2
45	1
50	11
51	59
52	30
53	213
54	37
55	163
56	10
57	8
58	4
59	6
60	2
61	1
62	5
63	28
64	12
65	159
66	47
67	536
68	999
69	139
70	8
71	5
72	2
73	3
74	5
75	5
76	5
77	268
78	58
79	323
80	48
81	262
82	58
83	47
84	8
85	2
86	2
87	2
88	4
89	10
90	4
91	382
92	56
93	356
94	89
95	125
96	444
97	59
98	6
99	1
101	1
102	7
103	47
104	17
105	275
106	60
107	320
108	194
109	531
110	93
111	35
112	22
113	3
114	1
115	69
116	25
117	67
118	15
119	244
120	49
121	400
122	334
123	278
124	32
125	3
126	1
127	12
128	37
129	46
130	16
131	52
132	19
133	150
134	50
135	143
136	114
137	48
138	6
139	2
140	1
141	13
142	16
143	35
144	13
145	54
146	18
147	226
148	55
149	127
150	66
151	8
152	3
153	3
154	2
155	5
156	6
157	39
158	12
159	27
160	35
161	135
162	50
163	47
164	10
165	2
167	1
168	1
169	1
170	6
171	13
172	8
173	12
174	8
175	149
176	44
177	21
178	3
183	1
184	1
185	52
186	8
187	6
188	5
189	43
190	52
191	7
192	1
198	1
199	2
200	29
201	11
202	2
203	256
204	39
205	3
216	1
217	6
218	359
219	59
220	5
