Mass Spectrum: Decane, 3,3,8-trimethyl-
Formula: C13H28
CAS: 62338-16-3
Molecular weight: 184
m/z	intensity
21	1
22	0
26	18
27	57
28	46
29	147
31	0
33	0
35	0
37	1
38	1
39	35
40	2
41	211
42	32
43	634
44	6
47	0
53	8
54	5
55	135
56	50
57	605
58	21
63	0
67	6
68	0
69	40
70	404
71	999
72	54
73	0
79	0
83	54
84	4
85	216
86	12
97	0
98	0
99	92
100	6
111	0
112	7
113	36
114	0
125	9
127	2
154	24
155	87
156	4
169	3
