Mass Spectrum: Cyclohexane, 1,2-dimethyl-3,5-bis(1-methylethenyl)-
Formula: C14H24
CAS: 62337-99-9
Molecular weight: 192
m/z	intensity
27	40
28	96
29	106
30	3
31	19
32	2
35	1
36	16
37	1
38	6
39	58
40	16
41	316
42	30
43	195
44	109
45	18
46	1
47	1
49	2
50	8
51	14
52	12
53	84
54	17
55	359
56	42
57	119
58	7
59	6
60	1
61	2
62	1
63	6
64	4
65	37
66	15
67	420
68	134
69	343
70	30
71	21
72	2
73	3
74	1
75	1
76	2
77	77
78	26
79	253
80	132
81	481
82	220
83	88
84	9
85	5
86	2
88	1
89	3
90	2
91	212
92	68
93	528
94	211
95	338
96	104
97	28
98	5
99	1
100	2
101	1
103	5
104	4
105	82
106	67
107	999
108	325
109	198
110	37
111	20
112	4
114	2
115	2
116	0
117	4
118	1
119	33
120	15
121	358
122	265
123	207
124	46
125	8
127	1
129	1
131	6
132	1
133	11
134	6
135	148
136	98
137	35
138	6
139	1
140	1
141	1
142	0
145	1
146	1
147	4
148	7
149	292
150	73
151	8
152	1
154	0
157	0
159	0
160	0
162	1
163	44
164	235
165	32
166	4
168	1
175	1
176	1
177	86
178	12
179	2
181	2
189	1
190	0
191	2
192	34
193	6
