Mass Spectrum: 2-Buten-1-amine, N-butyl-, (Z)-
Formula: C8H17N
CAS: 62337-87-5
Molecular weight: 127
m/z	intensity
23	0
24	0
25	1
26	10
27	106
28	139
29	189
30	999
31	15
32	1
33	0
37	3
38	5
39	85
40	12
41	114
42	58
43	45
44	50
45	0
47	0
48	0
49	0
50	4
51	8
52	5
53	34
54	31
55	506
56	103
57	58
58	4
62	0
65	1
66	0
67	7
68	34
69	5
70	77
71	4
72	24
73	7
74	0
75	0
78	1
79	1
80	7
81	5
82	29
83	5
84	615
85	35
86	20
87	1
93	2
94	1
95	0
96	2
97	4
98	14
99	5
100	0
108	1
110	6
111	0
112	31
113	2
117	0
120	0
122	0
123	1
124	1
125	1
126	17
127	51
128	4
