Mass Spectrum: 2-Buten-1-amine, N-butyl-, (E)-
Formula: C8H17N
CAS: 62337-86-4
Molecular weight: 127
m/z	intensity
22	1
24	0
25	1
26	11
27	111
28	129
29	186
30	999
31	12
32	0
35	0
37	4
38	4
39	75
40	12
41	116
42	62
43	48
44	44
45	1
46	0
49	1
50	3
51	9
52	7
53	35
54	30
55	505
56	91
57	68
58	4
64	0
65	1
66	2
67	6
68	34
69	6
70	71
71	5
72	15
79	1
80	8
81	5
82	32
83	7
84	480
85	31
86	13
87	1
93	1
94	1
96	3
97	6
98	13
99	9
100	1
106	1
108	1
110	6
111	1
112	28
113	2
123	2
124	2
125	1
126	10
127	40
128	2
