Mass Spectrum: Borinic acid, diethyl-, 5-hexynyl ester
Formula: C10H19BO
CAS: 62338-11-8
Molecular weight: 166
m/z	intensity
26	31
27	201
28	39
29	174
30	5
31	39
33	2
35	0
38	0
39	143
40	42
41	361
42	36
43	45
44	25
45	10
47	1
50	24
51	36
52	47
53	371
54	33
55	184
56	58
57	159
58	9
59	55
60	1
61	0
62	1
63	4
64	2
65	39
66	37
67	70
68	12
69	99
70	13
71	33
72	6
73	35
74	2
75	1
76	1
77	57
78	13
79	306
80	46
81	999
82	65
83	15
84	6
85	22
86	6
87	12
88	1
89	0
91	2
93	2
94	10
95	70
96	6
97	5
98	1
99	2
101	27
102	1
103	0
104	1
105	0
106	0
107	1
108	22
109	98
110	6
111	2
113	1
114	2
115	7
119	1
120	1
122	0
123	1
124	4
125	7
126	1
128	3
129	8
130	0
135	0
136	16
137	49
138	4
140	1
151	1
