Mass Spectrum: Cyclopropane, 1,2-dimethyl-3-methylene-
Formula: C6H10
CAS: 62338-02-7
Molecular weight: 82
m/z	intensity
26	59
27	314
28	141
29	56
30	1
31	2
32	1
35	0
36	5
37	15
38	40
39	537
40	92
41	549
42	156
43	23
45	2
46	0
48	1
49	9
50	64
51	92
52	39
53	232
54	212
55	57
56	16
57	4
59	1
60	0
61	6
62	11
63	22
64	3
65	103
66	29
67	999
68	50
69	2
70	0
71	0
72	0
73	2
74	4
75	2
76	1
77	27
78	5
79	53
80	7
81	81
82	89
83	8
