Mass Spectrum: Cyclobutane, 2-hexyl-1,1,4-trimethyl-
Formula: C13H26
CAS: 62338-53-8
Molecular weight: 182
m/z	intensity
26	2
27	57
28	8
29	81
30	2
31	0
35	0
37	1
38	1
39	55
40	10
41	241
42	101
43	77
44	0
45	0
47	0
50	1
51	3
52	1
53	25
54	12
55	311
56	287
57	115
58	4
62	0
63	0
64	0
65	4
66	2
67	29
68	28
69	332
70	999
71	50
72	1
73	0
77	3
78	0
79	5
80	1
81	9
82	16
83	48
84	77
85	9
86	0
90	0
91	1
93	0
94	0
95	4
96	8
97	36
98	20
99	0
109	0
110	1
111	13
112	35
113	2
124	0
125	29
126	1
127	0
138	0
139	0
140	132
141	14
142	0
182	0
