Mass Spectrum: 4-Decene, 5-methyl-, (E)-
Formula: C11H22
CAS: 62338-51-6
Molecular weight: 154
m/z	intensity
25	6
26	16
27	195
29	281
30	8
31	3
32	13
35	3
36	3
37	1
38	1
39	124
40	19
41	500
42	30
43	151
45	9
46	4
49	5
50	9
51	15
52	4
53	81
54	21
55	999
56	795
57	297
58	20
60	3
63	3
64	5
65	10
66	1
67	71
68	60
69	544
70	300
71	31
75	1
77	18
79	16
81	34
82	14
83	339
84	68
85	9
89	3
91	14
95	3
96	5
97	61
98	40
99	13
111	8
112	7
113	3
115	4
116	1
117	6
119	8
125	5
126	5
127	1
128	3
132	3
139	4
154	106
155	12
