Mass Spectrum: Benzene, [(1,2-dimethyl-2-propenyl)oxy]-
Formula: C11H14O
CAS: 62338-46-9
Molecular weight: 162
m/z	intensity
25	0
26	3
27	31
28	213
29	15
30	0
31	1
32	18
33	0
34	0
36	1
37	2
38	9
39	76
40	19
41	282
42	18
43	19
44	35
45	1
46	1
47	0
48	0
49	0
50	10
51	37
52	6
53	29
54	4
55	15
56	3
57	4
58	1
59	0
60	0
61	0
62	2
63	9
64	4
65	33
66	30
67	49
68	40
69	175
70	12
71	2
72	1
73	3
74	2
75	1
76	2
77	48
78	7
79	4
80	1
81	2
82	1
83	1
84	0
85	0
88	0
89	1
90	0
91	14
92	2
93	7
94	999
96	4
97	1
98	0
99	0
102	0
103	2
104	0
105	13
106	2
107	8
108	1
109	1
110	0
111	1
112	0
113	0
115	2
116	0
117	1
118	0
119	5
120	4
121	6
122	0
123	0
124	0
125	0
127	1
128	1
129	1
130	0
131	2
132	1
133	26
134	3
135	0
137	0
141	0
144	0
145	2
146	0
147	7
148	2
149	2
150	0
152	0
153	0
159	0
160	0
161	0
162	80
163	10
164	0
