Mass Spectrum: Benzene, (1,2-dimethylpropoxy)-
Formula: C11H16O
CAS: 62338-26-5
Molecular weight: 164
m/z	intensity
24	0
25	2
26	11
27	110
28	41
29	126
30	2
31	0
32	9
37	9
38	13
39	133
40	26
41	136
42	65
43	403
44	3
45	3
46	1
48	0
49	1
50	16
51	78
52	9
53	20
54	4
55	190
56	16
57	1
61	1
62	4
63	10
64	4
65	45
66	50
67	5
68	1
69	16
70	151
71	74
72	3
73	2
75	5
76	6
77	114
78	9
79	2
80	1
82	0
83	0
88	0
90	0
91	9
92	2
93	16
94	999
95	84
96	2
97	1
100	0
101	0
102	0
103	7
104	0
105	0
106	0
107	4
108	0
111	0
113	0
114	0
116	0
119	0
120	0
121	56
122	3
123	0
124	0
128	0
129	0
130	0
133	1
137	0
143	0
146	0
148	0
149	2
154	1
155	0
158	0
162	0
163	0
164	48
165	5
