Mass Spectrum: Phosphine, cyclohexyl(1,1-dimethylethyl)-
Formula: C10H21P
CAS: 62337-90-0
Molecular weight: 172
m/z	intensity
26	3
27	10
28	8
29	83
30	1
31	1
34	0
35	5
36	1
38	0
39	18
40	2
41	219
42	8
43	12
44	3
45	9
46	1
47	9
48	3
49	3
50	1
51	2
52	0
53	13
54	12
55	208
56	17
57	999
58	41
59	14
60	3
61	46
62	5
63	0
64	0
65	2
66	2
67	43
68	4
69	14
70	1
71	7
72	1
73	21
74	8
75	8
76	1
77	5
78	1
79	16
80	3
81	48
82	97
83	436
84	27
85	5
86	2
87	13
88	7
89	18
90	8
91	91
92	4
93	1
94	0
95	2
96	0
97	2
98	4
99	12
100	2
101	18
102	30
103	10
104	1
105	1
106	0
107	1
108	0
109	3
110	0
111	2
112	0
113	3
114	3
115	45
116	182
117	89
118	6
119	0
121	1
122	1
123	1
124	0
125	1
127	1
128	1
129	2
130	3
131	2
135	0
137	0
139	0
141	3
142	1
143	3
144	0
145	0
146	0
149	1
151	0
152	0
155	0
156	0
157	15
158	8
159	1
165	0
166	2
167	0
168	0
169	3
170	0
171	2
172	159
173	20
