Mass Spectrum: Ethanone, 1-(4,5-diethyl-2-methyl-1-cyclopenten-1-yl)-
Formula: C12H20O
CAS: 62338-24-3
Molecular weight: 180
m/z	intensity
2	2
14	4
15	66
18	5
26	8
27	124
28	14
29	110
38	7
39	110
40	17
41	120
42	20
43	999
44	23
45	10
50	12
51	44
52	20
53	64
54	7
55	68
56	5
57	24
62	4
63	15
64	5
65	36
66	12
67	48
68	4
69	22
75	4
77	78
78	20
79	61
80	11
81	58
82	5
83	8
91	61
92	10
93	38
94	6
95	71
96	7
103	5
105	16
107	77
108	13
109	226
110	21
119	4
121	12
122	9
123	27
124	4
133	9
135	6
136	4
137	89
138	11
147	2
151	398
152	48
153	4
165	78
166	1
180	161
181	23
