Mass Spectrum: Bicyclo[8.2.0]dodeca-3,7-diene, 11,11-dimethyl-
Formula: C14H22
CAS: 62338-28-7
Molecular weight: 190
m/z	intensity
25	2
26	10
27	159
28	171
29	113
30	2
31	1
32	26
36	6
37	4
38	8
39	224
40	40
41	586
42	30
43	99
44	44
45	3
46	1
47	1
48	1
49	1
50	12
51	49
52	35
53	129
54	52
55	144
56	110
57	279
58	15
59	3
60	2
61	0
62	2
63	16
64	9
65	88
66	103
67	369
68	40
69	357
70	26
71	9
72	1
73	11
74	4
75	9
76	4
77	260
78	195
79	633
80	999
81	140
82	38
83	13
84	4
85	4
86	0
87	1
88	1
89	10
90	6
91	498
92	444
93	408
94	47
95	49
96	14
97	5
98	2
99	1
100	0
101	1
102	2
103	13
104	30
105	266
106	187
107	52
108	24
109	76
110	10
111	3
112	1
113	1
114	0
115	11
116	4
117	23
118	5
119	244
120	38
121	34
122	6
123	4
124	1
125	1
126	1
127	1
128	3
129	3
130	1
131	6
132	20
133	70
134	180
135	26
136	36
137	3
138	0
139	0
141	1
142	0
143	0
144	0
145	1
146	1
147	30
148	8
149	20
150	3
151	0
152	0
153	0
154	0
155	0
156	0
157	0
159	0
160	0
161	4
162	4
163	1
164	0
165	0
166	0
167	1
168	1
169	3
170	0
173	0
175	12
176	1
177	0
178	0
179	0
180	0
181	0
188	0
189	0
190	2
