Mass Spectrum: Cyclobutene, 4,4-dimethyl-1-(2,7-octadienyl)-
Formula: C14H22
CAS: 62338-42-5
Molecular weight: 190
m/z	intensity
23	1
25	3
26	16
27	285
28	48
29	354
30	4
31	1
34	2
35	2
36	3
38	9
39	356
40	49
41	906
42	57
43	487
44	23
45	2
46	3
49	1
50	13
51	72
52	35
53	228
54	64
55	493
56	35
57	25
58	9
59	5
60	6
61	3
62	4
63	28
64	12
65	123
66	104
67	595
68	53
69	313
70	33
71	6
72	4
73	4
74	7
76	5
77	334
78	146
79	862
80	301
81	278
82	494
83	49
84	2
85	2
87	2
88	3
89	9
90	5
91	780
92	167
93	999
94	181
95	307
96	42
97	5
99	2
100	1
101	5
102	5
103	21
104	56
105	338
106	90
107	272
108	343
109	69
110	12
111	2
115	14
116	5
117	26
118	16
119	180
120	53
121	330
122	64
123	10
124	3
128	4
129	4
131	12
132	2
133	107
134	104
135	30
136	14
137	1
141	1
145	6
146	2
147	90
148	27
149	6
161	5
162	4
163	1
167	2
168	2
169	3
175	35
176	4
188	3
189	1
190	82
191	10
194	1
