Mass Spectrum: Biphenylene, 1,2,4a,4b,7,8,8a,8b-octahydro-
Formula: C12H16
CAS: 62357-80-6
Molecular weight: 160
m/z	intensity
27	27
29	10
39	46
40	12
41	33
43	10
44	15
50	13
51	33
52	23
53	26
54	15
55	8
57	8
63	12
64	7
65	30
66	7
67	27
75	7
76	7
77	110
78	60
79	314
80	999
81	107
82	157
83	14
91	55
92	9
102	8
103	9
104	15
105	10
106	25
115	19
116	9
117	18
127	6
128	13
129	9
131	11
160	82
161	14
