Mass Spectrum: Cycloundecane, 1,1,2-trimethyl-
Formula: C14H28
CAS: 62376-15-2
Molecular weight: 196
m/z	intensity
25	1
26	7
27	123
28	17
29	242
30	7
37	2
38	2
39	102
40	21
41	639
42	141
43	542
44	5
45	0
46	0
49	0
50	0
51	5
52	3
53	43
54	41
55	682
56	999
57	775
58	34
60	0
62	0
63	1
64	0
65	7
66	8
67	67
68	72
69	671
70	564
71	172
72	8
77	5
78	1
79	8
80	2
81	35
82	56
83	366
84	228
85	95
86	5
87	0
88	0
89	0
91	2
93	10
94	0
95	19
96	33
97	215
98	64
99	12
100	0
103	0
107	0
109	7
110	18
111	109
112	41
113	4
115	0
120	0
121	0
122	0
123	1
124	4
125	27
126	14
127	1
137	1
138	4
139	8
140	62
141	6
144	4
151	0
152	11
153	21
154	11
155	1
166	0
168	39
169	4
170	0
179	2
180	0
181	21
182	2
196	66
197	10
198	0
