Mass Spectrum: 4-Piperidinecarboxylic acid, 1-nitroso-
Formula: C6H10N2O3
CAS: 6238-69-3
Molecular weight: 158
m/z	intensity
30	218
31	30
38	21
39	193
40	36
41	230
42	709
43	199
44	30
45	199
51	33
52	24
53	106
54	96
55	424
56	181
57	33
60	60
67	50
68	48
69	69
70	89
71	21
73	18
80	54
81	30
82	999
83	106
100	24
110	19
128	448
129	32
141	12
158	163
159	12
