Mass Spectrum: Phenyl 4,6-di-O-acetyl-2,3-dideoxy-.alpha.-d-erythrohex-2-enopyranoside
Formula: C16H18O6
CAS: 62398-09-8
Molecular weight: 306
m/z	intensity
43	999
69	39
77	40
81	99
83	59
93	20
94	100
97	30
103	20
111	419
112	29
153	130
162	29
171	19
213	199
