Mass Spectrum: Diethyl azelate
Formula: C13H24O4
CAS: 624-17-9
Molecular weight: 244
m/z	intensity
14	1
15	5
19	1
25	1
26	12
27	135
28	71
29	441
30	16
31	20
38	2
39	95
40	24
41	385
42	212
43	226
44	16
45	162
46	6
47	7
48	4
49	6
50	2
51	6
52	4
53	52
54	50
55	999
56	113
57	86
58	11
59	57
60	304
61	202
62	6
63	39
65	10
66	7
67	122
68	75
69	301
70	210
71	37
73	249
74	36
75	7
77	33
78	4
79	56
80	41
81	140
82	119
83	719
84	230
85	36
86	13
87	89
88	426
89	32
90	3
91	9
92	8
93	38
94	6
95	76
96	138
97	450
98	219
99	37
101	303
102	32
103	3
105	11
106	13
107	78
108	13
109	31
110	82
111	541
112	49
113	15
114	15
115	100
116	16
117	5
121	1
123	52
124	307
125	338
126	37
127	29
128	19
129	101
130	17
131	2
133	4
134	16
135	54
136	8
137	43
138	4
139	1
141	36
142	54
143	29
144	65
145	6
146	1
150	2
152	834
153	165
154	29
155	28
156	49
157	632
158	62
159	5
169	2
170	70
171	30
172	57
173	7
176	1
181	1
182	1
185	1
188	6
198	34
199	638
200	76
201	10
202	2
244	1
