Mass Spectrum: 4-Decanone
Formula: C10H20O
CAS: 624-16-8
Molecular weight: 156
m/z	intensity
15	14
27	237
28	95
29	154
39	122
41	365
42	108
43	999
44	35
45	12
53	22
55	102
56	29
57	133
58	413
59	15
67	12
68	14
69	24
71	477
72	26
85	179
86	280
87	53
95	27
99	69
100	12
113	354
114	41
156	16
