Mass Spectrum: o-Ethylhydroxylamine
Formula: C2H7NO
CAS: 624-86-2
Molecular weight: 61
m/z	intensity
14	12
15	86
16	8
26	116
27	999
28	722
29	927
30	102
31	267
32	150
33	939
34	76
35	22
39	14
40	8
41	30
42	84
43	209
44	122
45	124
46	164
47	16
59	22
60	24
61	629
62	30
