Mass Spectrum: 1-Iodo-2,3-epoxypropane
Formula: C3H5IO
CAS: 624-57-7
Molecular weight: 184
m/z	intensity
12	6
13	16
14	52
15	54
16	2
17	1
18	1
19	1
20	1
24	1
26	149
27	686
28	60
29	999
31	532
32	6
33	1
36	3
37	18
38	25
39	53
40	7
41	14
42	25
43	5
44	1
46	1
53	2
54	1
55	10
57	273
58	10
59	1
63	1
127	162
128	52
129	4
139	6
140	7
141	31
142	2
143	1
151	1
152	3
153	7
154	6
155	5
156	1
181	1
184	231
185	8
186	1
