Mass Spectrum: Ethanamine, N-methyl-
Formula: C3H9N
CAS: 624-78-2
Molecular weight: 59
m/z	intensity
27	85
29	75
30	225
40	18
41	40
42	135
43	78
44	999
45	32
56	70
57	35
58	265
59	420
60	15
