Mass Spectrum: 1,2-Difluoroethane
Formula: C2H4F2
CAS: 624-72-6
Molecular weight: 66
m/z	intensity
25	161
26	405
31	362
33	999
34	64
44	233
45	978
46	986
47	261
51	30
63	62
64	141
65	193
66	275
67	6
