Mass Spectrum: 2-Pyrrolidinone, 5-(hydroxymethyl)-
Formula: C5H9NO2
CAS: 62400-75-3
Molecular weight: 115
m/z	intensity
26	16
27	50
28	163
29	26
30	22
31	45
37	2
38	6
39	34
40	12
41	185
42	68
43	18
44	18
45	3
50	2
51	3
52	6
53	5
54	15
55	23
56	112
57	14
58	2
59	2
60	10
66	8
67	2
68	2
69	4
70	5
71	16
72	17
83	8
84	999
85	41
86	3
115	37
116	4
