Mass Spectrum: 3-(4-Methylpent-3-enyl)thiophene
Formula: C10H14S
CAS: 62429-57-6
Molecular weight: 166
m/z	intensity
39	160
40	120
41	700
45	190
53	180
67	50
69	630
70	40
77	30
91	20
97	999
98	220
99	50
110	340
111	40
112	10
123	20
134	10
135	10
149	10
151	40
166	120
167	10
