Mass Spectrum: Phenylpropionic acid pentafluorobenzyl ester
Formula: C16H11F5O2
CAS: 62434-95-1
Molecular weight: 330
m/z	intensity
42	12
43	32
44	24
50	12
51	52
52	12
53	12
55	24
63	12
65	44
75	12
77	112
78	44
79	144
80	12
81	12
89	12
91	232
92	32
93	12
99	12
102	12
103	72
104	104
105	172
106	24
107	999
108	72
117	12
131	12
133	12
149	444
150	44
155	12
161	24
181	244
182	24
195	12
330	24
