Mass Spectrum: 1,4-Pentadiene, 1,1-dichloro-4-methyl-
Formula: C6H8Cl2
CAS: 62434-98-4
Molecular weight: 150
m/z	intensity
26	23
27	107
29	33
35	3
36	2
37	25
38	70
39	420
40	4
41	254
42	10
43	5
47	12
48	4
49	39
50	57
51	106
52	27
53	83
54	36
55	29
56	3
59	2
60	14
61	25
62	22
63	44
64	6
65	39
66	6
67	14
68	0
70	1
71	4
72	12
73	117
74	27
75	113
76	8
77	329
78	43
79	999
80	74
81	5
82	0
83	44
84	6
85	45
86	7
87	62
88	4
89	19
90	4
91	7
93	2
95	5
96	5
97	1
98	2
99	271
100	44
101	91
102	12
103	5
105	1
106	2
107	7
108	1
109	95
110	15
111	52
112	8
113	16
114	19
115	406
116	35
117	161
118	12
121	5
122	31
123	5
124	15
125	2
126	2
135	60
136	4
137	40
138	1
139	8
150	171
151	11
152	102
153	5
154	15
