Mass Spectrum: Cyclohexanecarboxylic acid, 4-propyl-, 4-cyanophenyl ester, trans-
Formula: C17H21NO2
CAS: 62439-33-2
Molecular weight: 271
m/z	intensity
15	1
17	1
18	3
26	2
27	55
28	7
29	63
30	1
37	5
38	5
39	64
40	10
41	238
42	19
43	66
44	2
50	4
51	9
52	4
53	37
54	57
55	292
56	14
57	159
58	7
62	3
63	13
64	17
65	9
66	6
67	117
68	22
69	999
70	56
71	9
74	1
75	4
76	3
77	10
78	3
79	22
80	7
81	115
82	38
83	542
84	36
85	1
89	1
90	25
91	9
92	4
93	5
94	1
95	23
96	6
97	5
102	17
103	2
107	1
109	9
110	10
111	1
118	9
119	27
120	16
121	3
123	12
124	4
125	867
126	89
127	3
132	1
135	1
146	1
151	2
152	3
153	553
154	59
155	4
271	6
272	2
