Mass Spectrum: Selenopentanoic acid, 4-methyl-, O-ethyl ester
Formula: C8H16OSe
CAS: 62448-97-9
Molecular weight: 208
m/z	intensity
39	160
41	470
43	999
55	320
57	560
69	120
71	330
81	410
99	110
106	110
120	210
121	190
122	490
124	980
126	200
127	120
135	50
137	90
148	90
149	80
150	200
152	450
154	80
204	130
205	110
206	330
208	680
209	70
210	130
