Mass Spectrum: Ethaneselenoamide, N-(4-methylphenyl)-
Formula: C9H11NSe
CAS: 62448-81-1
Molecular weight: 213
m/z	intensity
39	110
42	260
51	80
63	90
65	320
77	150
79	90
89	100
91	999
92	280
106	540
107	330
117	60
118	50
127	50
128	110
131	70
132	670
133	80
168	70
169	100
170	160
171	80
172	320
174	60
209	190
210	210
211	420
212	180
213	830
214	120
215	160
