Mass Spectrum: Cyclododecanol, 1-ethenyl-
Formula: C14H26O
CAS: 6244-49-1
Molecular weight: 210
m/z	intensity
26	17
27	375
28	77
29	416
30	11
31	43
38	6
39	257
41	973
42	181
43	233
44	27
45	17
50	3
51	24
52	14
53	119
54	131
55	999
56	104
57	238
58	365
59	156
60	4
63	7
65	40
66	41
67	308
68	272
69	226
70	583
71	612
72	106
73	20
77	42
78	21
79	159
80	141
81	244
82	231
83	587
84	153
85	133
86	11
87	2
91	26
92	12
93	113
94	101
95	166
96	218
97	212
98	157
99	32
100	17
105	4
106	3
107	66
108	59
109	96
110	95
111	155
112	38
113	26
114	19
115	3
121	70
122	33
123	36
124	39
125	91
126	16
127	19
128	18
129	3
135	62
136	22
137	13
138	13
139	25
140	10
141	5
142	11
149	33
150	36
151	5
152	38
153	20
154	5
155	6
156	1
163	21
164	5
165	3
166	10
167	11
168	3
169	4
177	7
181	2
182	5
183	38
184	3
192	12
193	5
195	9
196	1
210	29
211	3
