Mass Spectrum: 1,1',3-Tribenzoyl-2,3-dihydro-2,2'-biimidazole
Formula: C27H20N4O3
CAS: 62457-77-6
Molecular weight: 448
m/z	intensity
33	15
34	2
36	2
38	7
40	66
42	111
44	218
46	1
51	97
52	8
53	3
54	1
55	3
56	5
58	13
61	1
63	2
65	1
66	2
67	1
68	1
69	1
70	1
73	197
77	424
78	17
79	3
80	3
81	2
82	1
86	1
89	1
90	2
91	1
93	1
94	2
105	999
106	58
117	1
119	8
120	7
122	13
123	1
133	1
134	2
135	1
145	7
146	1
149	2
170	1
171	2
172	1
173	1
209	1
210	1
221	1
222	2
224	10
225	1
237	3
239	34
240	5
267	1
277	1
285	1
339	1
340	2
343	297
344	78
345	13
346	2
347	2
448	12
449	4
450	1
