Mass Spectrum: N-(2-Carboxyethyl)iminodiacetic acid
Formula: C7H11NO6
CAS: 6245-75-6
Molecular weight: 205
m/z	intensity
12	6
13	7
14	23
15	69
16	9
17	31
18	122
24	4
25	19
26	123
27	290
28	152
29	38
30	146
31	39
32	7
35	1
36	2
37	3
38	5
39	10
40	22
41	76
42	999
43	165
44	200
45	147
46	10
47	2
50	1
51	3
52	4
53	14
54	9
55	237
56	21
57	7
58	18
59	12
60	144
61	4
65	1
67	2
68	4
69	9
70	14
71	14
72	309
73	17
74	14
75	1
77	3
78	4
79	2
80	2
81	2
82	3
83	2
84	23
85	3
86	12
87	9
88	711
89	29
90	4
91	1
93	1
94	1
95	1
96	3
97	7
98	9
99	2
100	9
101	5
102	28
103	2
104	1
105	3
106	3
107	3
108	3
109	1
110	1
111	1
113	1
114	5
115	42
116	16
117	2
118	6
120	1
121	1
123	1
125	1
128	7
129	1
132	1
133	32
134	10
135	3
141	2
142	3
143	3
146	11
147	1
148	4
149	2
152	5
157	4
159	3
160	101
161	9
162	1
166	1
168	1
184	2
185	1
186	3
187	5
205	5
