Mass Spectrum: Bisethoxo(methoxo)oxovanadium
Formula: C5H13O4V
CAS: 62450-00-4
Molecular weight: 188
m/z	intensity
27	306
28	155
29	473
30	88
31	999
32	78
43	152
44	127
45	422
46	140
67	50
68	11
83	6
84	24
85	24
97	37
98	37
99	24
101	11
102	11
110	509
111	152
112	37
113	24
114	11
115	11
127	50
128	24
129	37
130	6
141	114
142	24
143	63
144	4
145	24
146	4
149	24
151	9
155	165
156	24
157	11
158	7
159	140
160	5
173	216
174	11
187	165
188	24
189	2
