Mass Spectrum: Methyl 5-methoxy-3-oxovalerate
Formula: C7H12O4
CAS: 62462-05-9
Molecular weight: 160
m/z	intensity
13	2
14	13
15	182
16	3
25	2
26	16
27	71
28	51
29	107
30	9
31	111
32	41
33	23
36	1
37	1
38	4
39	15
40	4
41	20
42	82
43	180
44	45
45	999
46	23
47	5
50	4
51	4
52	3
53	5
54	2
55	191
56	24
57	54
58	78
59	197
60	7
61	7
63	2
64	1
65	1
67	1
68	7
69	95
70	18
71	31
72	15
73	9
74	44
75	12
77	1
79	2
80	1
81	1
82	5
83	18
84	9
85	42
86	11
87	345
88	24
89	6
91	2
95	2
96	11
97	20
98	34
99	6
100	239
101	132
102	13
103	7
104	1
110	4
111	2
113	13
114	4
115	2
116	1
117	2
120	1
123	4
124	1
127	8
128	35
129	61
130	9
131	1
132	2
133	5
142	21
143	3
145	14
146	1
159	2
160	3
