Mass Spectrum: Dimethylamine, N-(diisopropylphosphino)methyl-
Formula: C9H22NP
CAS: 62474-28-6
Molecular weight: 175
m/z	intensity
27	29
28	5
29	11
30	45
31	0
33	0
37	1
38	1
39	14
40	4
41	44
42	50
43	47
44	10
45	8
46	2
47	8
48	1
49	0
54	0
55	1
56	3
57	8
58	999
59	28
60	2
61	4
62	1
67	0
68	0
69	1
71	1
72	1
73	4
74	3
75	5
76	8
77	1
83	0
84	0
85	0
87	0
88	2
89	4
90	3
91	0
98	0
103	0
116	1
117	0
118	3
119	0
130	0
131	1
132	1
175	0
