Mass Spectrum: Diisopropyl-(morpholine-4-yl)methyl-phosphine
Formula: C11H24NOP
CAS: 62474-29-7
Molecular weight: 217
m/z	intensity
41	100
42	124
43	485
44	41
56	106
57	284
58	41
70	65
71	59
74	71
75	41
76	284
77	41
82	53
83	41
84	195
85	30
86	65
87	242
88	30
99	71
100	999
101	106
102	5
118	290
119	30
120	2
217	24
218	6
