Mass Spectrum: 3-Methylbutyl tetradecanoate
Formula: C19H38O2
CAS: 62488-24-8
Molecular weight: 298
m/z	intensity
18	2
27	19
29	38
31	1
39	16
40	2
41	122
42	52
43	322
44	13
45	10
46	1
47	1
50	1
51	1
52	1
53	9
54	8
55	197
56	31
57	117
58	8
59	5
60	19
61	9
65	1
67	21
68	13
69	78
70	999
71	436
72	14
73	38
74	9
75	1
77	4
79	7
80	4
81	15
82	13
83	36
84	22
85	28
86	3
87	15
89	4
91	6
92	12
93	23
94	9
95	22
96	5
97	21
98	25
99	10
101	9
107	9
109	2
110	3
111	17
112	6
113	4
115	33
116	2
121	13
122	4
123	4
124	2
125	4
126	1
127	4
129	19
130	17
131	14
132	3
135	3
136	13
137	6
138	2
139	4
140	2
141	2
143	26
147	1
149	1
150	1
152	1
153	1
155	3
156	2
157	6
166	2
171	8
172	1
181	1
185	18
186	2
191	1
193	2
194	1
199	4
200	2
201	5
208	1
209	3
210	1
211	65
212	10
213	5
214	1
228	21
229	42
230	5
240	1
241	1
242	1
243	1
254	1
255	9
256	3
283	4
298	18
299	4
300	1
