Mass Spectrum: Myrtenoic acid, butyl ester
Formula: C14H22O2
CAS: 62486-91-3
Molecular weight: 222
m/z	intensity
25	2
26	10
27	175
28	12
29	394
30	11
31	10
33	2
34	1
35	3
36	3
37	4
38	13
39	190
40	27
41	704
42	56
43	246
44	19
45	13
47	2
48	3
49	0
50	18
51	64
52	36
53	102
54	14
55	113
56	156
57	999
58	48
59	26
60	2
61	4
62	2
63	15
64	3
65	73
66	31
67	76
68	61
69	60
70	4
71	3
72	2
73	10
74	4
75	1
76	3
77	230
78	79
79	368
80	43
81	41
82	22
83	17
84	1
85	13
86	1
89	5
91	212
92	31
93	153
94	20
95	24
96	8
97	7
98	13
99	3
100	2
101	2
102	4
103	25
104	13
105	290
106	55
107	110
108	23
109	9
110	51
111	36
112	3
115	10
116	2
117	13
118	3
119	63
120	43
121	186
122	103
123	688
124	189
125	16
127	1
128	2
129	0
130	5
131	8
132	2
133	76
134	5
135	10
136	3
137	10
138	4
139	4
141	0
142	3
143	3
144	1
145	3
147	22
148	21
149	84
150	12
151	72
152	4
164	3
165	14
166	64
167	8
168	3
169	1
174	1
177	2
178	6
179	10
180	25
181	3
206	2
207	6
208	1
222	14
223	1
