Mass Spectrum: Piperidine, 1-(cyclohexylcarbonyl)-2-methyl-
Formula: C13H23NO
CAS: 62498-66-2
Molecular weight: 209
m/z	intensity
33	4
34	3
36	1
37	0
39	110
40	62
41	336
42	89
43	53
44	45
45	3
46	2
50	2
51	9
52	7
53	48
54	47
55	503
56	128
57	41
58	37
59	11
60	8
61	0
63	1
65	8
66	7
67	47
68	22
69	34
70	61
71	16
72	25
73	7
74	3
75	0
77	10
78	2
79	20
80	6
81	41
82	38
83	342
84	999
85	48
86	8
87	4
89	0
91	2
92	1
93	2
94	2
95	5
96	11
97	32
98	183
99	45
100	58
101	3
105	0
106	0
107	2
108	2
109	11
110	37
111	30
112	23
113	4
114	3
115	2
116	0
117	0
121	0
122	1
123	0
124	5
126	210
127	27
128	113
129	8
130	0
134	0
135	0
136	4
137	0
138	9
139	4
140	16
141	41
142	6
143	0
144	2
145	0
150	1
152	25
154	287
155	32
156	5
159	0
164	1
166	18
167	14
168	41
169	4
170	0
171	0
178	0
179	1
180	16
181	4
182	1
183	2
186	0
192	1
194	107
195	12
196	1
206	0
207	1
208	10
209	200
210	28
211	3
