Mass Spectrum: N-Hydroxymethylacetamide
Formula: C3H7NO2
CAS: 625-51-4
Molecular weight: 89
m/z	intensity
42	400
43	999
44	232
45	381
49	29
51	11
59	39
60	60
61	29
71	375
72	160
73	64
86	5
88	41
89	383
90	14
