Mass Spectrum: Benzene, 1-chloro-3-fluoro-
Formula: C6H4ClF
CAS: 625-98-9
Molecular weight: 130
m/z	intensity
20	1
25	1
26	1
27	3
28	0
31	16
32	0
35	4
36	12
37	23
38	17
39	11
44	2
45	1
46	0
47	17
48	1
49	15
50	71
51	25
52	2
55	7
56	6
57	11
59	6
60	5
61	17
62	16
63	18
64	4
65	54
66	17
67	1
68	40
69	39
70	12
71	1
72	4
73	22
74	52
75	165
76	12
77	1
79	1
80	4
81	3
82	2
83	4
84	8
85	4
86	4
87	2
88	0
91	6
92	11
93	25
94	66
95	436
96	30
97	5
98	0
99	2
102	2
103	3
104	9
105	1
106	1
108	1
109	9
110	2
111	11
112	2
113	2
114	0
115	1
117	0
127	2
128	4
129	9
130	999
131	69
132	319
133	20
134	1
