Mass Spectrum: Thiourea, ethyl-
Formula: C3H8N2S
CAS: 625-53-6
Molecular weight: 104
m/z	intensity
14	2
15	14
16	1
17	5
18	58
26	9
27	60
28	116
29	57
30	110
31	2
32	11
33	10
34	9
35	3
38	1
39	3
40	9
41	13
42	60
43	393
44	638
45	25
46	4
47	7
48	13
51	2
52	1
53	4
54	8
55	38
56	2
57	4
58	5
59	42
60	240
61	44
62	14
63	2
69	6
70	24
71	34
72	3
74	2
75	6
76	22
77	2
78	1
86	11
87	4
88	4
89	1
90	9
102	3
103	222
104	999
105	61
106	46
107	2
