Mass Spectrum: Thiazole, 2,4-dihydroxy-
Formula: C3H3NO2S
CAS: 625-85-4
Molecular weight: 117
m/z	intensity
33	15
34	9
36	1
38	10
39	10
40	37
41	31
42	138
43	147
44	74
45	296
46	999
47	43
48	46
49	1
50	4
54	3
57	6
58	6
59	9
60	28
61	6
69	1
70	27
71	3
72	7
74	307
76	17
77	1
84	1
89	24
90	1
91	1
117	615
119	56
120	2
