Mass Spectrum: 2-Pentene, 2-methyl-
Formula: C6H12
CAS: 625-27-4
Molecular weight: 84
m/z	intensity
15	8
26	9
27	115
28	22
29	86
30	2
31	2
32	1
37	6
38	16
39	192
40	41
41	999
42	158
43	78
44	3
45	1
49	2
50	15
51	24
52	9
53	71
54	20
55	258
56	152
57	9
58	3
59	7
61	2
62	4
63	7
64	1
65	12
66	5
67	61
68	15
69	997
70	55
71	4
74	2
77	4
78	1
79	4
81	3
82	2
83	12
84	425
85	31
86	1
