Mass Spectrum: N'-(Diaminomethylidene)acetohydrazide
Formula: C3H8N4O
CAS: 6250-37-9
Molecular weight: 116
m/z	intensity
35	4
36	3
37	7
38	13
39	43
40	102
41	159
42	489
43	999
44	236
45	14
46	1
50	1
51	5
52	2
53	29
54	8
55	14
56	90
57	213
58	26
59	2
61	19
64	2
65	1
66	1
67	2
68	1
69	6
73	145
74	132
75	2
87	5
91	7
98	286
99	35
100	3
101	5
109	2
116	130
117	4
