Mass Spectrum: (E)-9-(Benzo[d][1,3]dioxol-5-yl)-1-(pyrrolidin-1-yl)non-8-en-1-one
Formula: C20H27NO3
CAS: 62510-52-5
Molecular weight: 329
m/z	intensity
27	14
28	18
29	25
30	18
39	32
40	6
41	87
42	39
43	178
44	18
50	6
51	34
52	9
53	23
54	9
55	243
56	107
57	70
59	3
63	25
64	8
65	26
67	17
68	23
69	40
70	299
71	126
72	253
75	11
76	15
77	136
78	20
79	21
81	20
85	122
89	28
91	41
92	7
97	12
98	170
99	41
100	11
102	40
103	315
104	37
105	16
107	8
110	8
111	7
112	45
113	999
114	84
115	123
116	63
117	51
118	8
121	10
122	32
124	8
125	4
126	655
127	134
128	34
129	25
130	17
131	355
132	36
133	8
135	285
136	45
140	32
143	22
144	25
145	24
146	6
147	33
148	136
149	20
152	33
153	7
154	28
155	10
157	13
158	5
159	11
160	11
161	73
162	16
166	15
168	104
169	17
173	29
174	40
175	15
176	4
180	16
181	10
183	4
187	13
188	5
194	187
195	25
230	14
233	5
246	8
247	3
258	57
259	12
328	3
329	265
330	58
331	8
