Mass Spectrum: Methyl hydrogen disulfide
Formula: CH4S2
CAS: 6251-26-9
Molecular weight: 80
m/z	intensity
34	160
41	179
42	368
43	206
44	463
45	747
46	999
47	492
48	471
49	101
78	119
79	153
80	108
