Mass Spectrum: 3-Cyclohexene-1-methanol, 2-hydroxy-.alpha.,.alpha.,4-trimethyl-
Formula: C10H18O2
CAS: 6252-34-2
Molecular weight: 170
m/z	intensity
26	5
27	96
28	9
29	77
30	4
31	92
38	9
39	149
40	27
41	349
42	24
43	560
44	23
45	56
47	4
50	11
51	40
52	20
53	85
54	21
55	113
56	52
57	41
58	18
59	571
60	22
61	26
62	5
63	15
64	6
65	45
66	24
67	69
68	49
69	644
70	129
71	83
72	11
73	7
75	6
76	4
77	136
78	38
79	700
80	202
81	498
82	99
83	162
84	352
85	39
86	4
87	8
89	6
90	4
91	102
92	31
93	275
94	999
95	199
96	27
97	116
98	11
99	2
103	6
104	3
105	11
106	5
107	19
108	20
109	139
110	43
111	26
112	115
113	12
115	6
116	4
117	18
119	33
120	6
121	20
122	5
123	17
124	30
125	5
126	2
130	4
132	4
133	4
134	14
135	8
136	21
137	191
138	21
139	8
141	4
151	11
152	116
153	15
154	4
170	4
