Mass Spectrum: 2,5-Methanothiopyrano[3,2-b]pyrrol-8-ol, octahydro-1-methyl-, acetate (ester), (2.alpha.,3a.beta.,5.alpha.,7a.beta.,8S*)-
Formula: C11H17NO2S
CAS: 62545-37-3
Molecular weight: 227
m/z	intensity
26	9
27	109
28	51
29	86
30	92
31	12
34	2
35	3
36	3
38	7
39	131
40	27
41	999
42	782
43	644
44	198
45	99
46	6
47	25
50	8
51	27
52	22
53	93
54	55
55	103
56	63
57	266
58	73
59	42
60	27
61	13
62	5
63	9
64	5
65	63
66	33
67	129
68	141
69	48
70	130
71	53
72	28
73	55
74	11
75	8
76	19
77	56
78	32
79	85
80	74
81	131
82	165
83	60
84	66
85	61
86	33
87	49
88	14
89	15
90	4
91	42
92	21
93	81
94	666
95	312
96	934
97	277
98	162
99	45
100	50
101	16
102	16
103	12
104	10
105	13
106	19
107	76
108	266
109	46
110	75
111	57
112	93
113	61
114	15
115	15
116	6
117	8
118	11
119	12
120	61
121	31
122	34
123	29
124	42
125	26
126	109
127	29
128	27
129	7
130	5
131	4
132	15
133	15
134	107
135	28
136	8
137	25
138	16
139	18
140	17
141	119
142	19
143	8
144	3
147	2
148	5
151	7
152	45
153	15
154	89
155	17
156	20
157	10
158	7
166	21
167	54
168	101
169	14
170	12
171	3
184	228
185	326
186	49
187	19
188	2
189	4
194	37
195	5
198	2
199	2
211	2
212	1
226	45
227	550
228	81
229	34
230	4
