Mass Spectrum: 2,5-Methanothiopyrano[3,2-b]pyrrol-8-ol, octahydro-1-methyl-, (2.alpha.,3a.beta.,5.alpha.,7a.beta.,8S*)-
Formula: C9H15NOS
CAS: 62545-52-2
Molecular weight: 185
m/z	intensity
26	4
27	50
28	21
29	30
30	18
31	13
33	3
34	4
35	2
38	3
39	53
40	9
41	61
42	819
43	17
44	26
45	51
46	4
47	12
48	1
50	6
51	8
52	6
53	29
54	22
55	43
56	17
57	87
58	13
59	11
60	3
61	4
62	1
63	2
64	31
65	3
66	11
67	67
68	20
69	9
70	30
71	7
72	20
73	11
74	8
75	3
76	5
77	15
78	6
79	12
80	28
81	49
82	999
83	71
84	4
85	18
86	14
87	3
88	7
89	4
90	3
91	13
92	3
93	16
94	563
95	368
96	76
97	22
98	6
99	13
100	7
102	2
103	3
104	2
105	2
106	5
107	13
108	81
109	11
110	10
111	7
112	3
113	8
114	8
115	11
116	4
117	6
118	2
119	8
120	7
121	6
122	6
123	2
124	20
125	28
126	5
127	5
128	11
129	2
130	2
132	10
133	6
134	139
135	18
136	2
137	2
138	9
140	6
141	2
142	2
147	2
149	6
152	241
153	27
154	4
155	4
156	5
167	6
168	6
169	2
171	2
184	6
185	360
186	44
187	17
188	3
