Mass Spectrum: 9-Thiabicyclo[3.3.1]non-6-en-2-amine, N-methyl-, endo-
Formula: C9H15NS
CAS: 62545-67-9
Molecular weight: 169
m/z	intensity
27	18
28	29
29	14
30	22
39	32
40	4
41	45
42	50
43	8
44	27
45	30
47	5
50	3
51	12
52	6
53	16
54	6
55	13
56	64
57	799
58	50
59	6
63	4
65	17
66	7
67	45
68	14
69	4
70	999
71	63
77	31
78	11
79	35
80	7
81	5
82	8
84	7
85	12
89	5
91	13
93	6
94	9
95	6
96	5
97	32
99	5
103	5
105	17
106	4
108	9
109	9
110	15
111	12
112	7
120	3
122	3
124	5
136	15
137	12
138	11
139	5
168	6
169	83
170	9
171	4
