Mass Spectrum: Bicyclo[2.2.1]heptan-2-ol, 7,7-dimethyl-, acetate
Formula: C11H18O2
CAS: 62555-02-6
Molecular weight: 182
m/z	intensity
26	19
27	140
28	66
29	172
30	10
31	13
36	8
37	12
38	23
39	219
40	56
41	480
42	126
43	999
44	144
45	34
46	6
47	6
50	15
51	31
52	19
53	120
54	50
55	226
56	38
57	101
58	15
59	45
60	17
61	16
63	13
65	53
66	109
67	226
68	89
69	206
70	74
71	55
72	23
73	21
74	8
75	51
76	11
77	113
78	363
79	594
80	156
81	372
82	112
83	93
84	42
85	80
86	20
87	6
88	6
89	11
91	132
92	42
93	238
94	197
95	257
96	138
97	98
98	46
99	154
100	17
101	36
102	10
103	11
104	10
105	51
106	30
107	470
108	71
109	70
110	18
111	43
112	22
113	13
115	10
117	15
119	14
120	10
121	64
122	896
123	215
124	33
125	57
126	13
138	16
139	37
140	42
141	34
142	9
182	14
