Mass Spectrum: 7-Aza-2-thiatricyclo[4.4.0.0(3,8)]decane, 9-bromo-7-methyl
Formula: C9H14BrNS
CAS: 62562-11-2
Molecular weight: 247
m/z	intensity
25	3
26	32
27	172
28	165
29	48
30	55
31	4
33	3
34	4
39	203
40	38
41	245
42	646
43	54
44	105
45	172
46	13
47	30
48	3
49	7
50	20
51	63
52	45
53	119
54	61
55	86
56	89
57	277
58	59
59	48
60	22
61	10
62	12
63	22
64	11
65	93
66	50
67	121
68	98
69	37
70	166
71	56
72	15
73	21
74	7
75	12
76	16
77	87
78	54
79	86
80	67
81	86
82	179
83	54
84	386
85	122
86	20
87	168
88	17
89	15
90	7
91	62
92	34
93	73
94	540
95	290
96	999
97	181
98	41
99	96
100	69
101	10
102	15
103	20
104	20
105	21
106	30
107	82
108	248
109	77
110	42
111	85
112	26
113	42
114	8
115	13
116	49
117	17
118	31
119	16
120	35
121	15
122	19
123	10
124	7
125	11
126	39
127	11
128	21
129	10
130	91
131	24
132	46
133	17
134	90
135	49
136	18
137	102
138	16
139	14
140	51
141	118
142	19
143	8
144	15
145	4
146	7
147	3
148	4
149	14
150	5
151	2
152	4
153	3
154	11
155	2
156	3
157	2
158	2
159	5
160	19
161	6
162	19
163	3
164	2
165	2
166	12
167	9
168	680
169	91
170	7
174	49
175	12
176	48
177	11
246	22
247	211
248	48
249	217
250	27
251	11
