Mass Spectrum: 2,3,5,6-Tetrafluoronitrobenzene
Formula: C6HF4NO2
CAS: 6257-03-0
Molecular weight: 195
m/z	intensity
46	100
47	5
51	26
55	19
56	23
61	41
62	4
69	186
70	2
74	42
75	185
76	7
80	138
81	30
85	57
86	44
87	32
93	118
94	7
98	47
99	999
100	62
101	4
117	76
118	28
130	58
131	23
137	286
138	10
148	23
149	454
150	66
151	4
165	337
166	25
175	3
179	100
180	8
195	810
196	46
197	4
