Mass Spectrum: Captopril
Formula: C9H15NO3S
CAS: 62571-86-2
Molecular weight: 217
m/z	intensity
15	7
17	6
18	19
20	3
26	12
27	43
28	30
29	22
30	8
31	8
32	11
33	3
34	4
36	4
38	6
39	72
40	20
41	229
42	67
43	84
44	39
45	65
46	9
47	91
49	6
50	3
51	5
52	4
53	13
54	15
55	58
56	34
57	11
58	9
59	16
60	5
61	3
65	2
67	15
68	89
69	122
70	999
71	69
72	27
73	20
74	22
75	131
76	8
77	11
78	3
81	4
82	5
83	5
84	7
85	5
86	10
87	20
91	6
94	3
95	3
96	20
97	31
98	44
99	13
100	8
101	18
102	8
103	20
104	6
105	7
107	3
108	4
110	5
111	5
112	22
113	6
114	107
115	19
116	110
117	9
118	3
119	4
122	4
124	26
125	14
126	206
127	111
128	17
129	6
130	5
131	69
132	7
133	4
138	54
139	10
140	222
141	23
142	4
143	6
145	4
147	3
152	60
153	8
156	7
157	8
158	37
159	5
160	4
161	6
163	5
165	3
167	4
170	30
171	58
172	53
173	120
174	13
175	18
176	6
184	153
185	13
199	160
200	16
201	9
202	11
217	170
218	18
219	11
