Mass Spectrum: (R)-(-)-2-Benzylamino-1-butanol
Formula: C11H17NO
CAS: 6257-49-4
Molecular weight: 179
m/z	intensity
29	14
30	25
31	31
43	12
44	4
50	10
51	34
52	10
55	6
56	10
58	16
63	18
64	9
65	103
66	10
70	11
74	13
76	5
77	18
78	9
79	14
89	21
91	999
92	84
104	7
105	7
106	16
146	12
148	336
149	43
150	20
