Mass Spectrum: 1-(2-Hydroxy-3-methoxy-3-phenylpropyl)piperazine
Formula: C14H22N2O2
CAS: 62594-49-4
Molecular weight: 250
m/z	intensity
34	10
40	150
41	40
42	130
43	90
44	170
45	20
51	30
56	350
57	40
58	80
65	10
70	160
77	80
78	20
84	40
91	70
97	30
99	999
100	200
105	30
112	10
114	10
121	90
129	60
146	10
156	10
168	10
184	10
194	10
208	10
219	10
232	10
250	10
251	5
