Mass Spectrum: 2,4,6-Heptanetrione
Formula: C7H10O3
CAS: 626-53-9
Molecular weight: 142
m/z	intensity
27	75
28	89
29	42
30	2
31	31
32	6
36	0
37	4
38	14
39	50
40	10
41	40
42	42
43	999
44	21
45	7
46	0
47	1
48	0
49	1
50	6
51	8
52	5
53	28
54	3
55	34
56	4
57	12
58	38
59	7
60	0
61	2
62	1
63	1
64	1
65	2
66	3
67	14
68	1
69	71
70	3
71	30
72	2
73	2
74	0
77	1
78	0
79	1
80	1
81	8
82	5
83	2
84	30
85	424
86	17
87	3
88	2
93	0
94	0
95	2
96	1
97	2
98	5
99	36
100	142
101	8
102	0
105	0
107	0
108	0
109	20
110	2
111	4
112	0
113	2
114	3
115	0
116	0
122	0
123	0
124	4
125	38
126	3
127	138
128	9
129	0
141	0
142	239
143	18
144	2
