Mass Spectrum: 1,3-Butadiene-1-carboxylic acid
Formula: C5H6O2
CAS: 626-99-3
Molecular weight: 98
m/z	intensity
25	1
26	1
27	999
28	51
29	72
30	4
31	24
34	1
35	8
36	16
37	74
38	88
39	201
40	40
41	199
42	369
43	102
44	76
45	180
46	9
47	3
48	16
49	87
50	321
51	350
52	292
53	782
54	43
55	179
56	14
57	18
58	0
59	0
60	2
61	5
62	2
63	1
64	0
65	2
66	7
67	6
68	5
69	204
70	248
71	31
72	2
73	0
74	0
75	0
76	0
77	7
78	1
79	20
80	16
81	98
82	5
83	1
84	1
85	1
86	0
91	0
93	2
95	0
96	3
97	323
98	441
99	30
100	3
102	0
