Mass Spectrum: Pyridine, 3-bromo-
Formula: C5H4BrN
CAS: 626-55-1
Molecular weight: 157
m/z	intensity
12	2
14	2
24	2
25	11
26	33
27	25
28	14
29	1
36	6
37	31
38	38
39	20
40	6
41	1
44	1
48	9
49	67
50	298
51	594
52	66
53	3
61	2
62	3
63	2
65	5
66	6
74	4
75	24
76	45
77	17
78	999
79	59
80	4
81	11
82	4
91	2
93	2
104	19
105	3
106	20
107	2
108	1
117	2
118	1
119	2
128	3
129	10
130	8
131	11
132	5
156	4
157	781
158	50
159	757
160	44
161	1
