Mass Spectrum: 2,4-Dihydroxypyridine
Formula: C5H5NO2
CAS: 626-03-9
Molecular weight: 111
m/z	intensity
42	166
43	53
44	7
45	10
49	3
50	8
51	13
52	20
53	36
54	52
55	109
56	10
64	8
65	9
66	18
67	12
68	31
69	84
70	618
71	26
80	3
82	28
83	88
84	3
111	999
112	70
113	3
