Mass Spectrum: Butanal, 3-methyl-, oxime
Formula: C5H11NO
CAS: 626-90-4
Molecular weight: 101
m/z	intensity
14	4
15	30
16	3
17	2
18	7
25	1
26	15
27	180
28	73
29	134
30	12
31	23
32	7
33	2
37	9
38	18
39	137
40	31
41	468
42	123
43	541
44	31
45	22
46	29
49	1
50	8
51	10
52	8
53	14
54	31
55	76
56	149
57	37
58	22
59	999
60	47
61	4
63	1
64	3
65	1
66	4
67	9
68	43
69	61
70	32
71	4
72	30
73	56
74	3
75	6
80	1
82	9
83	6
84	28
85	6
86	167
87	41
88	2
100	8
101	14
102	1
