Mass Spectrum: Butanoic acid, 4,4'-dithiobis[2-amino-, [S-(R*,R*)]-
Formula: C8H16N2O4S2
CAS: 626-72-2
Molecular weight: 268
m/z	intensity
12	9
13	2
14	6
15	34
16	49
17	47
18	113
19	3
24	1
25	6
26	55
27	176
28	628
29	128
30	582
31	25
32	133
33	139
34	343
35	52
36	15
37	13
38	22
39	121
40	36
41	193
42	224
43	205
44	999
45	242
46	76
47	261
48	15
49	12
50	6
51	17
52	31
53	17
54	124
55	125
56	660
57	142
58	52
59	135
60	123
61	257
62	32
63	36
64	54
65	12
66	15
67	25
68	71
69	34
70	52
71	25
72	45
73	123
74	342
75	166
76	9
77	9
78	8
79	15
80	20
81	8
82	35
83	47
84	22
85	14
86	33
87	71
88	803
89	174
90	741
91	92
92	62
93	28
94	32
95	13
96	15
97	10
98	6
99	16
100	39
101	115
102	45
103	14
104	6
105	19
106	34
107	12
108	9
109	4
110	9
111	8
112	8
113	8
114	21
115	10
116	29
117	359
118	36
119	21
120	10
121	7
122	8
123	7
124	9
125	8
126	8
127	8
128	50
129	12
130	11
131	6
132	4
133	226
134	65
135	36
136	16
137	6
138	6
139	6
140	7
141	4
142	6
143	4
144	5
145	5
146	9
147	9
148	4
149	5
150	17
151	7
152	7
153	5
154	5
155	5
156	7
157	9
158	5
159	6
160	7
161	10
162	5
163	5
164	5
165	6
166	5
167	8
168	6
169	5
170	4
171	6
172	8
173	8
174	6
175	4
176	3
177	2
178	3
179	3
180	4
181	4
182	3
183	3
184	2
185	4
186	2
187	4
188	3
189	2
190	2
191	2
192	2
193	3
194	4
195	3
196	2
197	4
198	3
199	4
200	3
201	4
202	2
203	2
204	1
205	3
206	3
207	3
208	3
209	3
210	2
211	2
212	2
213	2
214	3
215	2
216	2
217	2
218	2
219	2
220	2
221	1
222	2
223	2
224	2
225	2
226	2
227	1
228	2
229	2
230	2
231	2
232	5
233	2
234	2
235	2
236	2
237	1
238	5
239	2
240	2
241	2
242	1
243	1
244	1
245	2
246	2
247	1
248	1
249	1
250	2
251	2
252	1
253	1
268	1
269	1
