Mass Spectrum: Hexanoic acid, propyl ester
Formula: C9H18O2
CAS: 626-77-7
Molecular weight: 158
m/z	intensity
26	25
27	275
28	45
29	146
30	6
31	39
38	8
39	131
40	19
41	334
42	299
43	999
44	31
45	30
51	5
53	10
54	7
55	137
56	30
57	27
58	8
59	56
60	362
61	450
62	8
68	10
69	54
70	37
71	232
72	14
73	221
74	24
75	19
83	11
87	94
89	41
97	20
98	9
99	850
100	46
101	6
102	102
115	23
116	23
117	711
118	33
129	12
