Mass Spectrum: 10-Phenyl-n-decanol
Formula: C16H26O
CAS: 62607-69-6
Molecular weight: 234
m/z	intensity
29	102
31	102
41	175
55	207
69	163
77	47
91	776
92	417
104	999
105	155
117	232
131	97
216	28
234	111
