Mass Spectrum: Bis-(ethoxycarbonyl)methoxyiminomethane
Formula: C8H13NO5
CAS: 62619-46-9
Molecular weight: 203
m/z	intensity
15	144
16	21
17	24
18	78
25	18
26	72
27	330
28	576
29	999
30	96
31	162
32	30
33	18
39	15
40	18
41	42
42	162
43	210
44	108
45	156
46	24
47	12
54	121
55	36
56	54
57	24
58	162
59	72
60	54
61	24
62	12
68	12
69	18
70	24
71	9
72	48
73	24
74	30
75	12
84	12
85	18
86	65
87	42
88	62
89	9
100	30
101	24
102	9
103	6
104	6
115	153
116	30
117	6
129	18
130	42
131	9
158	42
159	24
160	18
203	20
204	6
