Mass Spectrum: 2-Phenyl-4-[3,4,5-trimethoxybenzylidene]-5[4H]-oxazolone
Formula: C19H17NO5
CAS: 62616-09-5
Molecular weight: 339
m/z	intensity
41	1
42	1
43	4
45	1
47	0
49	3
50	10
51	41
52	3
53	5
54	1
55	1
56	1
62	4
63	14
64	4
65	4
66	2
68	1
69	2
70	0
74	3
75	9
76	23
77	269
78	21
79	8
80	0
82	0
83	1
84	4
85	1
86	3
87	1
88	3
89	8
90	6
91	6
92	6
93	2
94	0
95	1
100	0
101	4
102	7
103	19
104	22
105	999
106	96
107	5
108	0
109	1
110	1
114	3
115	8
116	4
117	8
118	6
119	10
120	15
121	2
123	0
124	0
126	0
127	0
129	3
130	9
131	5
132	22
133	13
134	9
135	2
136	1
137	0
139	1
140	1
143	1
144	1
145	7
146	39
147	4
148	9
149	6
150	1
152	1
153	1
154	1
158	0
159	1
160	4
161	36
162	14
163	9
164	3
165	1
166	0
170	6
173	38
174	6
175	1
176	15
177	6
178	1
181	4
182	0
188	0
190	7
191	2
192	10
193	1
194	1
200	0
202	1
205	0
206	131
207	27
208	3
209	0
216	1
222	1
236	1
241	0
242	0
