Mass Spectrum: Methyl bis(methoxycarbonyl)methylenamine, N-oxide
Formula: C6H9NO5
CAS: 62619-42-5
Molecular weight: 175
m/z	intensity
27	89
28	506
29	379
30	106
31	122
32	25
33	7
40	25
41	114
42	494
43	51
44	63
45	65
46	16
54	89
55	91
56	570
57	38
58	51
59	999
60	58
61	63
62	16
69	72
70	51
71	13
86	349
87	51
99	38
100	620
101	38
115	46
116	190
117	51
118	13
144	385
145	157
146	23
158	51
159	38
160	10
175	380
176	23
177	5
