Mass Spectrum: Benzenehexanenitrile, .beta.,.beta.-dimethyl-.epsilon.-oxo-
Formula: C14H17NO
CAS: 62623-62-5
Molecular weight: 215
m/z	intensity
105	999
106	90
133	50
156	10
157	20
175	40
187	10
200	40
201	10
215	20
