Mass Spectrum: Cyclopropene, 1,2-dichloro-3,3-difluoro-
Formula: C3Cl2F2
CAS: 6262-45-9
Molecular weight: 144
m/z	intensity
28	1
29	1
31	22
32	1
35	1
37	1
40	0
43	1
44	3
45	1
47	22
49	8
50	5
55	31
56	2
59	16
60	1
61	5
63	1
66	1
69	1
71	8
73	2
74	100
75	4
78	6
80	1
85	1
87	1
90	42
91	1
92	14
94	61
95	1
96	46
97	4
98	5
99	1
105	0
106	1
107	1
109	999
110	41
111	309
112	11
124	1
125	120
126	6
127	79
128	3
129	11
131	1
143	0
144	52
145	2
146	34
147	1
148	4
