Mass Spectrum: 1,5-Diphenyl-1,5-pentanedione
Formula: C17H16O2
CAS: 6263-83-8
Molecular weight: 252
m/z	intensity
26	5
27	15
28	5
39	11
41	11
42	6
43	5
50	20
51	80
52	9
55	27
63	3
65	8
74	5
75	8
76	7
77	436
78	39
79	5
89	5
91	17
103	8
105	999
106	60
107	5
115	10
120	172
121	15
130	52
131	6
132	14
133	118
134	12
146	32
147	39
148	6
207	5
223	12
224	5
234	20
252	20
