Mass Spectrum: 1,2,8-Trimethoxyoctane
Formula: C11H24O3
CAS: 62635-58-9
Molecular weight: 204
m/z	intensity
67	108
68	30
69	40
71	999
72	49
73	20
74	9
79	20
80	10
82	19
88	29
89	108
91	9
92	9
93	40
94	19
95	888
96	71
97	30
98	19
100	9
109	9
127	50
159	829
160	60
