Mass Spectrum: 1,2,9-Trimethoxy-nonane
Formula: C12H26O3
CAS: 62635-59-0
Molecular weight: 218
m/z	intensity
67	569
69	88
71	999
72	69
81	149
85	59
89	68
95	59
109	888
110	90
111	59
141	120
173	787
174	89
