Mass Spectrum: 1-Allyl-3-(2-fluorophenyl)-2-thiourea
Formula: C10H11FN2S
CAS: 62644-12-6
Molecular weight: 210
m/z	intensity
33	24
34	18
35	2
36	3
37	19
39	437
41	906
42	34
43	19
44	22
45	90
46	14
47	13
48	3
50	59
51	50
52	36
53	10
54	42
56	486
57	423
58	35
59	42
60	65
61	13
62	23
63	70
64	58
65	25
66	8
67	23
68	33
69	56
70	33
71	31
72	53
73	64
74	53
75	201
76	26
77	30
78	8
79	4
81	57
82	54
83	354
84	97
85	12
86	4
87	6
88	13
89	19
90	89
91	60
92	15
93	16
94	48
95	147
96	78
97	10
98	23
99	32
100	39
101	21
102	29
103	8
104	4
105	4
106	4
107	17
108	23
109	98
110	113
111	999
112	69
113	5
114	9
115	13
116	7
117	14
118	4
119	2
121	36
122	68
123	9
124	29
126	12
127	27
128	24
129	4
130	11
131	4
134	160
135	40
136	96
137	63
138	6
139	1
140	3
141	11
142	5
143	1
145	1
146	1
148	45
149	45
150	23
151	9
153	81
154	89
155	12
156	8
157	6
158	2
159	3
160	3
161	2
162	4
163	6
164	1
165	1
167	1
168	14
169	9
170	2
171	2
173	1
174	2
175	11
176	35
177	29
178	4
179	1
180	1
181	2
187	1
189	3
190	3
191	17
192	4
193	3
195	645
196	65
197	28
198	2
207	1
208	1
209	27
210	244
211	26
212	11
213	1
