Mass Spectrum: 3,6-Methano-8H-1,5,7-trioxacyclopenta[ij]cycloprop[a]azulene-4,8(3H)-dione, hexahydro-9-hydroxy-8b-methyl-9-(1-methylethyl)-, [1aR-(1a.alpha.,2a.beta.,3.beta.,6.beta.,6a.beta.,8aS*,8b.beta.,9R*)]-
Formula: C15H18O6
CAS: 62655-15-6
Molecular weight: 294
m/z	intensity
43	999
44	610
51	100
53	150
55	330
65	170
67	150
69	130
71	360
77	210
79	230
81	100
91	260
93	140
95	190
97	120
105	130
107	120
109	110
112	120
133	110
135	120
137	110
139	600
147	120
149	140
161	100
294	60
