Mass Spectrum: Pentanoic acid, 2-acetyl-5-oxo-3,5-diphenyl-, ethyl ester
Formula: C21H22O4
CAS: 6265-29-8
Molecular weight: 338
m/z	intensity
33	17
34	13
36	17
37	4
38	13
39	78
40	158
41	36
42	36
43	207
44	64
45	28
46	7
47	1
48	2
50	37
51	131
52	21
53	20
55	39
56	8
57	21
58	4
59	0
60	7
61	4
62	7
63	31
64	10
65	45
66	9
67	10
68	8
69	51
70	8
71	10
72	1
73	7
74	11
75	19
77	470
78	143
79	29
80	3
81	5
82	5
83	7
84	8
85	9
86	4
87	11
88	9
89	27
90	15
91	143
92	22
93	4
94	5
95	10
96	3
97	5
98	1
99	3
100	3
101	17
102	58
103	183
104	260
105	999
106	72
107	19
108	4
109	4
110	3
111	3
112	2
113	8
115	185
116	75
117	51
118	18
120	86
121	10
122	3
123	5
124	2
125	2
126	4
127	20
128	24
129	35
130	22
131	170
132	20
133	10
134	6
135	6
136	3
137	4
138	1
139	9
140	4
141	21
142	11
144	106
145	62
146	16
147	27
148	6
149	11
150	2
151	4
152	8
153	5
154	0
155	4
156	2
157	8
158	4
159	13
160	28
161	20
162	7
163	2
164	3
165	9
166	1
167	2
168	5
169	9
170	9
171	35
172	59
173	61
174	8
175	7
176	6
177	22
178	12
179	8
180	2
181	3
183	13
184	4
185	3
187	28
188	15
189	13
190	8
191	15
192	5
193	4
194	1
195	0
196	6
197	18
198	4
199	2
200	1
201	6
202	18
203	27
204	15
205	18
206	24
207	29
208	21
209	60
210	9
213	4
215	21
216	8
217	25
218	56
219	32
220	10
221	8
222	4
223	0
226	1
227	4
228	8
229	17
231	12
232	7
234	116
235	16
236	3
242	0
243	15
244	10
245	20
246	50
247	216
248	55
249	49
250	11
251	1
255	0
256	0
257	1
258	0
259	0
263	3
264	3
265	2
266	0
269	0
270	2
271	2
272	8
273	28
274	106
275	33
276	6
277	1
290	1
291	3
292	15
293	6
295	12
296	1
316	0
317	1
318	5
320	77
321	16
322	1
338	11
339	1
