Mass Spectrum: 2-Methyl-5-methoxy-4H-pyran-4-one
Formula: C7H8O3
CAS: 6266-91-7
Molecular weight: 140
m/z	intensity
66	64
67	78
68	97
69	343
71	42
72	42
79	100
82	45
83	38
85	103
95	999
96	99
97	119
99	46
110	416
111	272
122	133
125	56
139	240
140	728
141	76
