Mass Spectrum: 4-Methyl-N-(1-naphthalenyl)-1-piperazinecarboxamide
Formula: C16H19N3O
CAS: 6266-76-8
Molecular weight: 269
m/z	intensity
33	16
34	1
36	2
37	8
39	105
42	999
43	462
44	151
45	12
48	2
49	3
50	38
51	41
52	20
53	11
54	64
56	587
58	972
61	10
62	33
63	73
64	17
65	25
68	39
70	527
71	227
72	31
74	32
75	33
76	21
77	32
78	4
79	2
80	4
82	54
83	213
85	161
87	40
88	31
89	47
90	8
91	2
93	1
94	1
95	8
97	52
98	50
99	158
100	341
102	29
103	2
104	1
109	1
110	2
111	4
112	9
113	60
114	86
115	297
116	32
118	1
122	1
123	2
124	4
126	44
127	176
128	23
129	5
130	1
135	1
136	1
137	2
138	5
140	109
141	90
142	70
143	60
144	9
151	1
152	3
153	4
154	16
155	8
156	7
157	1
165	2
166	6
167	10
169	163
170	45
171	5
180	1
181	1
182	5
183	2
184	2
185	7
186	21
187	4
196	1
197	3
198	2
199	2
209	1
210	2
211	3
212	19
213	3
225	3
247	2
268	5
269	49
270	8
271	1
