Mass Spectrum: Androstan-17-one, 3-(acetyloxy)-16-bromo-, cyclic 17-(1,2-ethanediyl acetal), (3.alpha.,5.alpha.,16.alpha.)-
Formula: C23H35BrO4
CAS: 62675-96-1
Molecular weight: 454
m/z	intensity
26	2
27	12
28	11
29	21
30	4
31	27
36	3
37	1
38	2
39	11
40	4
41	72
42	9
43	110
44	6
45	19
50	2
51	3
52	2
53	18
54	6
55	123
56	10
57	23
58	2
59	5
60	4
61	3
62	3
63	2
64	1
65	13
66	7
67	73
68	13
69	41
70	8
71	13
72	3
73	56
74	5
75	3
76	2
77	33
78	9
79	86
80	22
81	99
82	16
83	20
84	5
85	8
86	33
87	45
88	3
89	3
90	2
91	72
92	17
93	82
94	24
95	54
96	10
97	16
98	5
99	999
100	139
101	20
102	4
103	6
104	5
105	57
106	30
107	80
108	43
109	37
110	8
111	7
112	8
113	61
114	5
115	10
116	6
117	16
118	8
119	36
120	14
121	33
122	14
123	15
124	5
125	16
126	35
127	9
128	5
129	12
130	5
131	22
132	7
133	30
134	12
135	22
136	7
137	8
138	2
139	32
140	5
141	6
142	4
143	13
144	8
145	31
146	10
147	28
148	10
149	40
150	7
151	7
152	6
153	6
154	2
155	4
156	3
157	12
158	7
159	24
160	10
161	17
162	6
163	7
164	8
165	9
166	7
167	6
168	2
169	5
170	4
171	10
172	4
173	13
174	6
175	9
176	5
177	21
178	3
179	19
180	2
181	3
182	2
183	5
184	2
185	7
186	4
187	9
188	3
189	4
190	3
191	4
192	1
193	3
194	2
195	5
196	2
197	9
198	5
199	8
200	4
201	48
202	9
203	6
204	2
205	6
206	2
207	4
208	1
209	2
210	3
211	5
212	2
213	18
214	5
215	16
216	38
217	13
218	11
219	5
220	3
221	6
222	1
223	3
224	2
225	3
226	2
227	5
228	14
229	12
230	7
231	3
232	1
233	2
234	1
235	1
236	1
237	6
238	3
239	5
240	3
241	4
242	2
243	3
244	2
245	3
246	1
247	3
248	1
249	1
250	2
251	3
252	19
253	53
254	14
255	8
256	4
257	7
258	2
259	3
260	2
261	9
262	6
263	1
264	1
265	2
269	3
270	5
271	13
272	17
273	8
274	11
275	4
276	12
277	4
278	2
279	2
280	1
281	1
282	0
283	0
285	1
286	1
287	2
288	16
289	4
290	2
291	17
292	3
293	1
294	1
295	1
296	5
297	2
298	5
299	9
300	3
301	2
302	1
303	0
304	0
305	1
306	1
307	1
308	1
309	2
310	2
311	1
312	21
313	30
314	12
315	162
316	45
317	8
318	2
319	3
320	1
329	0
330	1
331	3
332	3
333	11
334	3
335	5
336	1
337	3
338	0
339	0
345	4
346	2
347	8
348	3
349	2
350	10
351	4
352	11
353	3
355	0
359	11
360	5
361	20
362	6
363	1
364	0
374	55
375	158
376	55
377	10
378	2
379	3
380	2
381	3
393	1
394	1
395	2
396	1
397	1
398	0
409	1
410	2
411	2
412	1
413	1
414	1
415	0
416	0
431	1
439	2
440	2
441	3
442	2
443	1
453	3
454	19
455	5
456	19
457	5
458	1
