Mass Spectrum: 4H-Naphtho[2,3-b]pyran-4,6,9-trione, 5,8-bis(acetyloxy)-2-methyl-
Formula: C18H12O8
CAS: 62681-87-2
Molecular weight: 356
m/z	intensity
43	999
45	200
51	120
53	70
69	200
120	120
148	80
160	110
175	140
189	180
205	120
216	180
272	870
284	40
300	10
314	420
327	20
356	10
358	20
