Mass Spectrum: 1,8-Diphenyl-1,8-octanedione
Formula: C20H22O2
CAS: 6268-58-2
Molecular weight: 294
m/z	intensity
40	140
41	120
43	140
44	80
51	100
55	90
57	50
58	40
69	40
71	40
72	60
77	400
78	120
91	40
105	999
106	100
120	370
121	60
133	40
156	30
157	40
171	50
174	30
175	190
176	40
294	60
