Mass Spectrum: Benzenebutanenitrile, .gamma.-oxo-.alpha.-phenyl-
Formula: C16H13NO
CAS: 6268-00-4
Molecular weight: 235
m/z	intensity
17	12
18	53
26	7
27	32
28	14
29	1
32	3
37	3
38	10
39	56
40	4
41	7
42	3
43	4
44	3
49	2
50	70
51	252
52	31
53	7
54	1
55	3
56	2
57	2
61	4
62	17
63	43
64	14
65	32
66	4
67	1
69	2
71	2
73	3
74	22
75	25
76	40
77	730
78	84
79	6
80	6
81	2
82	1
83	2
86	2
87	6
88	9
89	64
90	17
91	36
92	5
94	2
95	2
98	4
99	4
100	3
101	8
102	30
103	276
104	56
105	999
106	203
107	16
108	2
109	2
110	1
111	2
114	5
115	8
116	80
117	12
118	3
119	2
120	3
126	2
127	5
128	17
129	197
130	677
131	94
132	7
133	9
135	2
138	1
139	2
140	5
141	2
143	1
144	5
149	1
150	2
151	4
152	6
153	4
154	1
156	7
157	2
158	3
160	1
163	3
164	2
165	10
166	4
176	3
177	4
178	12
179	20
180	7
181	2
189	3
190	5
191	6
192	6
193	2
203	3
204	6
205	6
206	18
207	71
208	63
209	19
210	4
214	2
216	4
217	6
218	6
219	5
220	4
232	12
233	16
234	17
235	611
236	107
237	11
