Mass Spectrum: Naphthalene, 1,2,3,5,8,8a-hexahydro-
Formula: C10H14
CAS: 62690-65-7
Molecular weight: 134
m/z	intensity
26	12
27	118
28	74
29	74
38	18
39	220
40	41
41	249
42	54
43	69
44	55
50	31
51	112
52	59
53	100
54	26
55	81
56	30
57	34
58	27
62	10
63	49
64	30
65	154
66	71
67	96
68	19
69	35
70	22
71	24
74	10
75	15
76	17
77	321
78	313
79	328
80	212
81	56
82	20
83	28
84	13
85	13
89	25
90	14
91	999
92	580
93	327
94	35
103	67
104	61
105	352
106	322
107	44
115	66
116	28
117	62
118	14
119	363
120	47
121	8
133	80
134	756
135	81
136	10
