Mass Spectrum: Naphthalene, 1,2,3,4,4a,8a-hexahydro-
Formula: C10H14
CAS: 62690-62-4
Molecular weight: 134
m/z	intensity
26	6
27	99
29	30
37	5
38	7
39	115
40	18
41	97
42	5
43	9
44	0
49	2
50	18
51	53
52	35
53	27
54	2
55	24
56	8
59	2
62	5
65	32
66	31
67	28
68	2
69	2
73	3
74	3
75	6
76	4
77	103
78	230
79	131
80	46
81	5
82	2
85	2
86	3
87	0
88	2
89	9
90	6
91	999
92	583
93	103
94	6
98	2
99	1
101	0
103	24
104	30
105	181
106	98
107	9
113	2
115	19
116	5
117	5
119	124
120	15
130	5
131	5
133	18
134	284
135	30
136	2
