Mass Spectrum: Benzenepropanoic acid, .beta.-methyl-, ethyl ester
Formula: C12H16O2
CAS: 62690-29-3
Molecular weight: 192
m/z	intensity
26	19
27	126
28	1
29	178
30	9
31	11
37	2
38	10
39	111
40	9
41	90
42	57
43	75
44	5
45	16
49	2
50	49
51	142
52	41
53	21
55	3
56	2
57	4
58	3
59	3
60	16
61	9
62	14
63	48
64	10
65	63
66	7
69	7
70	5
73	3
74	19
75	22
76	25
77	263
78	150
79	153
80	10
86	2
87	7
88	27
89	25
90	7
91	294
92	25
93	3
101	6
102	35
103	191
104	171
105	999
106	98
107	25
108	3
114	2
115	54
116	16
117	155
118	659
119	100
120	7
121	368
122	33
123	2
129	2
130	2
131	21
132	2
133	3
135	23
136	3
141	2
145	11
146	14
147	64
148	7
163	29
164	5
165	1
177	5
192	136
193	18
194	1
