Mass Spectrum: 2-Pentyne
Formula: C5H8
CAS: 627-21-4
Molecular weight: 68
m/z	intensity
15	64
25	9
26	56
27	235
28	13
29	19
31	26
36	10
37	65
38	95
39	411
40	196
41	301
42	90
49	41
50	169
51	203
52	126
53	779
54	38
60	14
61	58
62	75
63	88
64	17
65	148
66	68
67	449
68	999
69	52
