Mass Spectrum: .beta.-Iodoethyl acetate
Formula: C4H7IO2
CAS: 627-10-1
Molecular weight: 214
m/z	intensity
42	49
43	999
44	24
45	33
87	429
127	45
141	19
154	119
155	58
214	11
