Mass Spectrum: 2-Butenediamide, (E)-
Formula: C4H6N2O2
CAS: 627-64-5
Molecular weight: 114
m/z	intensity
12	1
13	2
14	5
15	19
16	33
17	37
18	30
24	2
25	18
26	137
27	96
28	67
29	23
30	6
31	8
32	6
36	7
37	7
38	10
39	13
40	21
41	50
42	44
43	47
44	999
45	83
46	6
50	6
51	34
52	79
53	199
54	112
55	93
56	9
57	20
58	2
59	6
60	3
61	1
62	2
65	1
66	2
67	9
68	22
69	35
70	924
71	154
72	8
73	4
74	1
76	2
77	8
78	21
79	4
80	41
81	19
82	22
83	12
84	6
85	6
86	59
87	30
88	2
91	3
92	1
93	2
94	1
95	6
96	15
97	51
98	414
99	51
100	5
101	1
109	4
110	2
111	5
112	2
113	2
114	290
115	18
116	3
