Mass Spectrum: Propylcarbamate
Formula: C4H9NO2
CAS: 627-12-3
Molecular weight: 103
m/z	intensity
24	1
25	1
26	80
27	334
28	141
29	172
30	24
31	999
32	4
33	7
35	0
36	2
37	11
38	25
39	94
40	17
41	179
42	180
43	261
44	588
45	87
46	16
50	0
52	1
53	3
54	2
55	3
56	3
57	32
58	56
59	195
60	41
61	0
62	463
63	8
64	1
65	0
69	0
70	0
71	0
72	0
73	8
74	151
75	5
76	0
77	0
79	1
86	0
87	2
88	3
89	1
