Mass Spectrum: Undecanoic acid, ethyl ester
Formula: C13H26O2
CAS: 627-90-7
Molecular weight: 214
m/z	intensity
26	5
27	92
28	22
29	252
30	3
31	4
39	45
40	4
41	231
42	68
43	266
44	5
45	79
53	11
54	12
55	191
56	35
57	138
58	7
59	11
60	160
61	153
67	17
68	11
69	95
70	151
71	50
73	185
74	19
75	3
81	11
82	5
83	56
84	29
85	34
87	21
88	999
89	87
90	4
95	17
96	2
97	26
98	25
99	2
101	463
102	29
109	3
111	6
115	54
125	2
129	22
143	33
157	58
158	5
169	103
170	8
171	44
172	3
185	10
214	32
215	3
