Mass Spectrum: Cyanic acid, ethyl ester
Formula: C3H5NO
CAS: 627-48-5
Molecular weight: 71
m/z	intensity
26	109
27	605
28	387
29	999
30	31
40	28
41	24
42	77
43	137
44	24
56	640
70	45
71	394
72	24
