Mass Spectrum: Hexane, 1,5-dibromo-
Formula: C6H12Br2
CAS: 627-96-3
Molecular weight: 242
m/z	intensity
35	10
36	39
37	21
38	41
39	331
40	81
41	918
42	130
43	400
44	21
50	27
51	32
52	16
53	107
54	39
55	999
56	99
57	83
65	15
66	10
67	81
68	12
69	33
70	6
77	9
78	22
79	22
81	20
82	22
83	881
84	61
93	20
95	20
105	7
106	14
107	51
108	14
109	49
119	10
120	7
121	58
122	9
123	54
162	14
163	197
164	27
165	188
166	18
