Mass Spectrum: 1-Pentyne
Formula: C5H8
CAS: 627-19-0
Molecular weight: 68
m/z	intensity
12	1
13	1
14	3
15	11
24	1
25	6
26	42
27	328
28	38
29	243
30	6
31	12
32	6
36	5
37	49
38	97
39	548
40	611
41	226
42	222
43	13
44	2
48	2
49	14
50	64
51	84
52	36
53	439
54	20
55	4
60	5
61	17
62	24
63	31
64	5
65	66
66	41
67	999
68	152
69	7
