Mass Spectrum: Acetic acid, (ethylthio)-
Formula: C4H8O2S
CAS: 627-04-3
Molecular weight: 120
m/z	intensity
26	80
27	380
28	70
29	400
30	40
35	80
41	150
42	110
43	30
44	110
45	200
46	260
47	870
48	80
49	40
57	30
58	60
59	90
60	200
61	999
62	70
63	70
64	10
73	20
74	120
75	550
76	10
77	130
78	10
79	10
92	20
102	10
103	10
105	30
120	430
121	70
122	30
