Mass Spectrum: Acetamide, N-[2-(4-nitrophenyl)ethyl]-
Formula: C10H12N2O3
CAS: 6270-07-1
Molecular weight: 208
m/z	intensity
15	6
27	16
28	43
29	20
30	611
31	4
38	7
39	37
40	15
41	17
42	35
43	424
44	29
50	24
51	48
52	20
53	10
60	5
62	16
63	59
64	26
65	38
66	4
72	999
73	60
74	13
75	13
76	16
77	109
78	56
79	16
80	4
89	118
90	118
91	108
92	18
93	7
102	20
103	102
104	33
105	9
106	210
107	85
108	3
117	16
118	42
119	286
120	77
121	32
133	71
134	11
136	10
137	263
138	21
147	1
148	3
149	148
150	30
162	8
165	5
166	11
178	11
179	10
191	25
207	12
208	32
