Mass Spectrum: n-Butyl-ethanesulfinylamide
Formula: C6H15NOS
CAS: 62705-33-3
Molecular weight: 149
m/z	intensity
30	162
41	171
43	19
57	999
58	69
64	272
65	50
72	30
77	30
78	29
106	49
110	29
120	872
121	59
122	99
132	139
133	20
149	150
150	232
151	29
