Mass Spectrum: Piperazine, 1,4-di(methylsulfonyl)-
Formula: C6H14N2O4S2
CAS: 6270-73-1
Molecular weight: 242
m/z	intensity
33	2
34	3
35	1
36	4
37	0
38	2
40	30
42	464
43	32
44	33
45	10
46	4
47	4
48	16
49	3
50	3
51	3
52	4
54	76
55	214
56	465
57	71
58	66
60	4
61	1
63	14
64	13
65	11
66	5
67	3
68	3
69	7
70	5
71	5
72	1
74	2
75	3
76	3
77	2
79	75
81	24
83	265
85	999
86	42
90	0
91	1
92	0
94	0
95	1
96	0
97	3
98	1
99	1
100	0
101	0
104	0
105	1
106	1
107	4
108	22
109	1
110	1
111	5
112	1
113	2
114	0
115	0
120	1
121	1
122	4
123	0
124	0
125	0
126	0
127	0
128	0
129	0
131	1
133	1
134	6
135	1
136	1
139	14
140	1
141	4
142	0
147	0
149	1
152	0
153	0
156	1
159	0
162	109
163	342
164	23
165	16
166	0
167	0
171	0
172	0
177	1
179	0
182	0
185	0
186	0
210	0
211	3
213	0
227	1
240	0
242	26
243	1
244	2
