Mass Spectrum: 2-Furancarboxylic acid, 1-methylethyl ester
Formula: C8H10O3
CAS: 6270-34-4
Molecular weight: 154
m/z	intensity
25	6
26	29
27	113
28	5
29	71
31	3
36	6
37	65
38	139
39	451
40	41
41	158
42	51
43	225
44	29
45	13
51	13
52	6
53	17
55	17
56	11
59	197
66	23
67	25
68	69
69	7
81	8
84	75
94	7
95	999
96	82
97	8
112	644
113	119
114	8
139	11
140	2
154	107
155	11
