Mass Spectrum: 1,2-Ethanediol, 1-phenyl-, diacetate
Formula: C12H14O4
CAS: 6270-03-7
Molecular weight: 222
m/z	intensity
14	4
15	35
16	1
17	2
18	7
26	1
27	8
28	16
29	8
31	3
32	1
36	1
37	1
38	3
39	22
40	2
41	5
42	11
43	999
44	23
45	21
49	1
50	16
51	53
52	12
53	5
55	2
57	1
60	13
61	2
62	4
63	14
64	4
65	23
66	2
73	12
74	9
75	6
76	7
77	124
78	49
79	158
80	9
86	9
87	1
89	13
90	9
91	68
92	11
93	1
94	1
101	1
102	8
103	43
104	34
105	109
106	15
107	592
108	54
109	3
115	8
116	2
117	6
118	3
119	6
120	278
121	36
122	5
125	6
126	1
127	2
128	1
129	1
130	2
131	1
133	5
134	43
135	7
137	1
138	9
139	3
140	3
141	1
148	1
149	129
150	15
151	2
161	1
162	89
163	14
164	1
165	1
178	2
179	1
193	6
194	1
207	1
