Mass Spectrum: 2(1H)-Pyrazinone
Formula: C4H4N2O
CAS: 6270-63-9
Molecular weight: 96
m/z	intensity
33	0
34	7
36	1
38	61
39	95
40	27
41	397
42	238
43	28
44	87
45	2
46	2
47	2
48	2
50	10
51	36
52	43
53	54
54	12
55	21
56	5
57	6
58	0
59	36
60	3
61	0
62	0
63	0
64	2
65	2
66	9
67	109
68	498
69	50
70	5
72	23
73	2
75	0
76	1
77	2
78	1
79	5
80	3
81	5
82	3
83	7
84	3
85	2
86	2
87	0
88	1
91	2
92	1
96	999
97	46
98	9
99	0
