Mass Spectrum: 2-(4-Chloro-phenylthio)indan
Formula: C15H13ClS
CAS: 62702-97-0
Molecular weight: 260
m/z	intensity
39	56
43	45
51	25
63	50
65	46
89	30
91	146
108	46
109	20
115	169
116	676
117	999
118	90
143	20
144	29
260	244
261	40
262	90
