Mass Spectrum: Phosphinic amide, N,N-dimethyl-, bis(2-phenylhydrazino)-
Formula: C14H20N5OP
CAS: 62729-72-0
Molecular weight: 305
m/z	intensity
33	68
34	1
39	42
40	21
42	34
44	288
45	42
46	88
51	66
52	15
53	8
54	2
55	0
57	0
59	19
60	4
64	55
65	89
66	23
67	2
69	0
73	0
74	2
77	622
78	50
79	15
80	12
81	1
83	0
92	256
93	410
94	38
95	2
96	0
97	0
105	279
107	999
108	111
109	10
119	1
120	3
121	1
122	1
123	0
125	0
135	0
136	2
137	4
138	4
139	1
141	14
142	0
153	11
154	5
155	4
156	0
161	0
163	1
165	1
166	0
167	1
168	4
169	1
170	0
180	0
181	0
182	4
183	14
184	1
185	0
196	0
197	0
198	1
199	0
200	9
201	0
211	0
213	24
214	7
215	0
305	37
306	6
307	0
