Mass Spectrum: 1,6-Methanonaphthalene-1,9(2H)-diol, octahydro-, (1.alpha.,4a.alpha.,6.beta.,8a.alpha.,9S*)-
Formula: C11H18O2
CAS: 62725-46-6
Molecular weight: 182
m/z	intensity
41	820
53	300
55	600
67	580
77	340
79	800
80	400
81	440
84	790
91	610
93	490
95	430
97	999
104	400
107	380
108	380
110	500
112	340
133	450
164	380
182	780
