Mass Spectrum: Chromium, bis[(1,2,3,3a,7a-.eta.)-1H-inden-1-yl]-
Formula: C18H14Cr
CAS: 62728-92-1
Molecular weight: 282
m/z	intensity
25	0
26	2
27	0
37	3
38	6
39	37
49	1
50	42
51	11
52	999
53	112
54	26
58	0
61	6
62	25
63	61
64	7
65	26
66	1
72	0
74	10
75	9
76	1
77	10
78	0
85	4
86	10
87	14
88	16
89	65
90	11
91	17
92	11
99	0
100	0
101	2
102	0
103	0
109	0
110	1
111	0
112	0
113	17
114	15
115	258
116	56
117	4
118	0
125	0
126	0
127	1
128	1
138	0
139	1
140	3
141	27
142	2
151	0
152	1
153	0
158	0
162	0
163	1
164	0
165	23
166	3
167	384
168	82
169	19
170	1
174	0
175	0
176	0
187	0
189	0
199	0
200	1
201	1
202	5
203	2
204	0
215	1
224	1
225	1
226	9
227	9
228	8
229	6
230	4
231	0
253	0
255	0
277	0
278	0
279	1
280	29
281	8
282	612
283	183
284	40
285	5
286	0
