Mass Spectrum: 2-Methylindole, TMS derivative
Formula: C12H17NSi
CAS: 62737-87-5
Molecular weight: 203
m/z	intensity
31	9
38	2
39	17
40	1
43	89
44	1
45	186
46	9
47	5
50	4
51	17
52	7
53	20
54	9
55	12
56	3
57	9
58	11
59	57
60	4
61	2
62	5
63	17
64	4
65	5
66	4
67	8
68	3
70	4
71	4
72	8
73	999
74	90
75	35
76	6
77	51
78	9
79	6
80	4
81	1
83	3
84	6
85	2
86	2
87	6
88	1
89	13
90	6
91	9
92	3
93	5
94	8
95	1
97	1
101	3
102	16
103	29
104	12
105	17
106	4
107	3
108	1
110	1
114	1
115	15
116	4
117	13
118	4
119	9
120	3
121	2
127	2
128	10
129	10
130	93
131	86
132	22
133	6
134	5
135	2
136	1
141	1
142	3
143	10
144	16
145	12
146	11
147	4
148	3
156	27
158	12
159	5
160	13
161	6
162	1
168	1
169	5
170	15
171	5
172	22
173	12
176	1
182	1
183	1
184	4
185	3
186	16
187	15
188	308
189	53
190	10
191	1
200	2
201	6
202	48
203	791
204	152
205	31
206	3
