Mass Spectrum: trans-1,4,6-Trimethyl-3,7,9-trioxabicyclo(4,2,0)nonane
Formula: C9H16O3
CAS: 62759-59-5
Molecular weight: 172
m/z	intensity
39	69
41	148
43	999
55	40
57	100
58	120
59	69
61	50
67	19
69	79
71	49
72	60
85	70
98	139
99	179
100	129
101	49
112	39
114	20
115	10
127	10
129	9
130	49
157	10
172	29
