Mass Spectrum: 3,8,9-Trioxabicyclo[4.2.1]nonane  #
Formula: C6H10O3
CAS: 62759-61-9
Molecular weight: 130
m/z	intensity
41	178
42	201
43	108
44	100
45	59
53	20
54	999
55	59
56	10
57	50
58	9
59	10
61	9
69	20
70	9
71	30
72	9
73	10
83	10
84	40
85	9
100	140
101	10
130	250
