Mass Spectrum: 2,2,5,5,6-Pentamethyl-4,7,9-trioxabicyclo[4.2.1]nonane
Formula: C11H20O3
CAS: 62759-70-0
Molecular weight: 200
m/z	intensity
39	90
40	29
41	267
42	39
43	200
44	180
45	119
53	70
54	19
55	179
56	999
57	251
58	20
59	9
60	80
61	29
67	40
68	69
69	40
70	19
71	750
73	199
83	39
85	338
86	70
97	10
98	10
99	30
101	9
115	10
116	39
117	19
142	10
