Mass Spectrum: 1,6-Dimethyl-3,7,9-trioxabicyclo(4,2,1)nonane
Formula: C8H14O3
CAS: 62759-56-2
Molecular weight: 158
m/z	intensity
39	69
41	119
43	999
55	178
57	70
58	120
61	69
69	30
70	110
71	110
85	389
98	59
99	79
100	150
113	9
114	39
115	29
143	10
158	30
