Mass Spectrum: 4-Methyl-3,7,9-trioxabicyclo(4,2,1)nonane
Formula: C7H12O3
CAS: 62759-62-0
Molecular weight: 144
m/z	intensity
39	80
40	20
41	78
42	30
43	999
44	79
45	49
53	19
54	250
55	99
56	49
57	230
58	180
59	30
60	9
61	20
69	40
70	29
71	59
72	99
73	90
74	9
83	40
84	499
85	60
86	79
87	60
88	29
98	9
101	49
102	9
103	9
114	79
144	30
