Mass Spectrum: Bis(methylthio)methyl-tributylstannane
Formula: C15H34S2Sn
CAS: 62762-49-6
Molecular weight: 398
m/z	intensity
25	3
26	28
27	177
28	9
29	329
30	7
31	2
33	4
34	5
35	26
36	0
37	5
38	8
39	100
40	15
41	319
42	24
43	49
44	18
45	174
46	29
47	77
48	45
49	9
50	9
51	8
52	3
53	18
54	6
55	53
56	38
57	116
58	12
59	66
60	9
61	584
62	20
63	64
64	21
65	3
66	2
67	11
68	3
69	153
70	13
71	9
72	1
74	5
75	6
76	43
77	8
78	15
79	1
80	8
81	1
82	4
83	1
84	5
85	1
86	4
87	7
88	0
89	1
90	0
91	19
92	69
93	7
94	10
95	3
96	1
97	3
98	1
99	1
100	0
101	2
102	1
103	2
104	0
105	1
106	1
107	999
108	52
109	88
110	3
111	2
112	2
113	9
114	1
115	10
116	37
117	157
118	125
119	274
120	173
121	358
122	35
123	133
124	13
125	65
126	0
127	20
128	1
129	3
130	4
131	46
132	30
133	81
134	37
135	106
136	14
137	22
138	3
139	19
140	3
141	4
142	2
143	7
144	4
145	22
146	9
147	31
148	10
149	38
150	12
151	30
152	13
153	35
154	2
155	7
156	1
157	8
158	2
159	12
160	3
161	29
162	19
163	163
164	90
165	251
166	90
167	292
168	15
169	73
170	3
171	71
172	8
173	99
174	58
175	518
176	270
177	801
178	280
179	909
180	59
181	186
182	14
183	165
184	10
185	11
186	9
187	9
188	15
189	12
190	19
191	8
192	5
193	13
194	10
195	22
196	9
197	28
198	3
199	8
200	2
201	6
202	2
203	4
204	2
205	5
206	2
207	5
208	5
209	11
210	9
211	15
212	9
213	12
214	3
215	4
216	2
217	3
218	2
219	5
220	2
221	15
222	8
223	35
224	18
225	72
226	28
227	89
228	20
229	69
230	15
231	239
232	149
233	388
234	177
235	499
236	51
237	80
238	11
239	91
240	9
241	2
242	1
243	9
244	5
245	14
246	5
247	19
248	1
249	3
250	1
251	4
252	1
253	1
254	1
255	1
256	1
257	1
258	1
259	1
260	1
261	1
262	1
263	1
264	1
265	2
266	1
267	2
268	1
269	3
270	1
271	1
272	0
273	2
274	1
275	2
276	1
277	17
278	11
279	28
280	14
281	56
282	20
283	52
284	20
285	63
286	11
287	172
288	111
289	285
290	134
291	372
292	55
293	66
294	18
295	73
296	11
297	3
298	1
299	2
300	0
301	5
302	3
303	8
304	4
305	10
306	0
307	2
308	0
309	3
310	1
311	3
312	0
313	2
314	0
315	2
316	0
317	2
318	0
319	2
320	1
321	1
322	0
323	1
324	0
325	1
326	0
327	0
333	1
334	0
335	1
336	0
337	7
338	4
339	11
340	6
341	15
342	3
343	6
344	3
345	8
346	3
347	9
348	2
349	3
350	1
351	3
352	1
353	1
354	0
355	0
356	0
357	11
358	7
359	20
360	8
361	26
362	2
363	3
364	1
365	6
367	4
369	6
375	3
376	1
377	2
378	2
379	38
380	27
381	64
382	36
383	89
384	18
385	21
386	3
387	16
388	3
389	2
390	1
391	1
392	1
393	1
394	18
395	12
396	32
397	17
398	43
399	8
400	9
401	1
402	7
403	1
404	0
