Mass Spectrum: 2,6-Dimethyl-3-methylthio-5-thioxo-2,5-dihydro-1,2,4-triazine
Formula: C6H9N3S2
CAS: 62764-57-2
Molecular weight: 187
m/z	intensity
41	158
42	79
43	119
45	230
55	90
56	101
71	49
72	79
83	150
88	209
99	999
146	50
187	550
