Mass Spectrum: Carbamic acid, (trifluoromethyl)-, methyl ester
Formula: C3H4F3NO2
CAS: 62765-22-4
Molecular weight: 143
m/z	intensity
31	460
44	130
46	180
59	640
69	999
78	40
80	260
86	200
92	330
95	20
98	220
112	390
114	190
115	60
123	100
143	230
