Mass Spectrum: 4,6-Dimethyl-3,5-dioxo-2,3,4,5-tetrahydro-1,2,4-triazine
Formula: C5H7N3O2
CAS: 62764-56-1
Molecular weight: 141
m/z	intensity
41	99
42	238
43	100
44	80
55	60
56	999
57	130
58	179
70	50
84	70
141	300
