Mass Spectrum: 2,6-Dimethyl-3,5-dioxo-2,3,4,5-tetrahydro-1,2,4-triazine
Formula: C5H7N3O2
CAS: 62764-55-0
Molecular weight: 141
m/z	intensity
41	149
42	824
43	399
44	139
55	121
56	400
57	131
69	452
70	999
83	59
84	49
100	131
141	631
