Mass Spectrum: 2,6-Dimethyl-3-methoxy-5-oxo-2,5-dihydro-1,2,4-triazine
Formula: C6H9N3O2
CAS: 62764-59-4
Molecular weight: 155
m/z	intensity
41	89
42	447
43	211
56	999
57	58
69	261
70	409
83	50
86	50
98	59
99	258
114	109
155	757
