Mass Spectrum: 4,6-Dimethyl-3-methylthio-5-thioxo-4,5-dihydro-1,2,4-triazine
Formula: C6H9N3S2
CAS: 62764-58-3
Molecular weight: 187
m/z	intensity
41	348
42	79
43	420
45	311
46	118
47	101
57	138
71	111
72	128
83	158
84	140
99	999
146	178
172	99
187	520
