Mass Spectrum: Ethanedithioamide, N,N'-bis[3-(dimethylamino)propyl]-
Formula: C12H26N4S2
CAS: 62778-13-6
Molecular weight: 290
m/z	intensity
30	43
41	35
42	120
43	28
44	74
45	17
46	12
56	32
57	29
58	999
59	45
60	2
68	4
70	32
71	21
72	76
84	270
85	23
86	66
87	27
88	3
113	2
127	2
145	161
146	17
161	35
187	26
206	30
219	147
220	10
221	2
232	26
