Mass Spectrum: Benzonitrile, 4-(4-butylcyclohexyl)-
Formula: C17H23N
CAS: 62788-04-9
Molecular weight: 241
m/z	intensity
14	3
15	5
26	7
27	153
28	10
29	237
30	6
37	1
38	6
39	162
40	23
41	456
42	60
43	185
44	6
50	15
51	38
52	18
53	67
54	90
55	654
56	155
57	366
58	15
61	1
62	8
63	29
64	11
65	26
66	19
67	221
68	75
69	224
70	397
71	45
72	2
74	6
75	18
76	24
77	60
78	28
79	39
80	35
81	377
82	254
83	159
84	57
85	5
86	2
87	5
88	9
89	79
90	24
91	20
92	5
93	9
94	21
95	80
96	542
97	100
98	30
99	4
100	5
101	25
102	61
103	81
104	103
105	11
106	4
107	21
108	5
109	47
110	35
111	14
112	173
113	15
114	13
115	122
116	883
117	225
118	27
119	5
120	1
121	3
122	4
123	64
124	16
125	15
126	5
127	33
128	87
129	999
130	641
131	119
132	11
133	2
134	3
135	28
136	432
137	76
138	82
139	10
140	72
141	35
142	490
143	445
144	137
145	107
146	12
147	1
149	3
150	2
151	2
152	6
153	18
154	38
155	33
156	79
157	61
158	29
159	8
160	2
161	1
162	8
163	1
164	1
165	2
166	9
167	50
168	37
169	9
170	40
171	14
172	10
173	6
174	2
175	2
177	1
178	1
179	1
180	2
181	8
182	18
183	38
184	261
185	81
186	18
187	7
188	1
192	2
195	4
196	2
197	2
198	44
199	36
200	10
201	1
211	1
212	41
213	23
214	6
223	1
224	2
226	9
227	3
239	3
240	26
241	901
242	171
243	15
244	1
