Mass Spectrum: Benzonitrile, 4-(4-pentylcyclohexyl)-
Formula: C18H25N
CAS: 62788-05-0
Molecular weight: 255
m/z	intensity
15	15
27	308
29	507
30	13
39	199
41	590
42	73
43	292
51	36
53	84
54	99
55	460
56	92
57	140
65	36
67	181
68	61
69	178
70	190
71	106
76	29
77	76
78	34
79	52
81	289
82	179
83	95
84	37
89	114
95	85
96	381
97	150
98	36
101	37
102	89
103	123
104	100
109	46
110	37
111	31
115	219
116	999
117	199
124	31
126	70
127	63
128	162
129	936
130	576
131	114
137	36
140	111
142	435
143	346
144	126
145	96
150	468
151	72
152	54
153	35
154	52
155	43
156	89
157	62
158	30
167	76
168	53
170	30
183	30
184	180
185	72
198	49
199	43
212	45
255	354
256	68
