Mass Spectrum: 1-Ethynylcyclohexanol, TMS derivative
Formula: C11H20OSi
CAS: 62785-90-4
Molecular weight: 196
m/z	intensity
26	76
27	34
28	258
29	24
31	5
35	3
36	6
37	3
38	3
39	43
40	9
41	54
42	10
43	31
44	87
45	113
46	5
47	81
48	3
49	6
50	7
51	17
52	18
53	26
54	7
55	170
56	11
57	7
58	10
59	47
60	13
61	83
62	4
63	7
65	25
66	6
67	23
68	4
69	34
70	9
71	7
72	17
73	999
74	99
75	991
76	75
77	78
78	52
79	63
80	10
81	60
82	9
83	252
84	28
85	39
87	4
89	8
91	75
92	16
93	12
94	4
95	5
96	5
97	19
98	5
99	16
100	2
101	5
103	15
104	9
105	39
106	32
107	12
109	10
110	9
111	27
112	7
113	32
114	4
115	6
116	4
117	5
118	2
119	5
120	12
121	5
123	11
124	4
125	83
126	13
127	30
128	10
129	3
130	5
133	7
135	9
137	23
138	4
139	41
140	56
141	19
142	16
143	5
144	3
145	4
147	3
149	6
151	34
152	8
153	840
154	156
155	219
156	34
157	6
161	3
163	9
164	2
165	21
166	6
167	244
168	148
169	30
170	10
171	4
172	2
179	7
180	4
181	932
182	154
183	49
184	5
195	52
196	179
197	37
198	8
