Mass Spectrum: Ethanone, 1-(2,3-dihydro-5,7-dinitro-1-indolyl)-
Formula: C10H9N3O5
CAS: 62796-78-5
Molecular weight: 251
m/z	intensity
36	0
37	4
38	16
39	73
40	11
41	15
43	999
44	31
45	6
46	3
48	0
50	32
51	47
52	30
53	28
54	5
55	3
56	2
57	1
58	0
59	0
60	3
61	10
62	47
63	115
64	37
65	34
66	15
67	7
68	3
69	2
70	0
71	0
73	2
74	11
75	21
76	30
77	38
78	46
79	10
80	7
81	1
82	0
83	0
85	3
86	9
87	22
88	35
89	139
90	72
91	24
92	7
93	3
94	1
95	1
96	0
97	0
98	0
99	1
100	1
101	2
102	7
103	11
104	33
105	24
106	5
107	1
108	1
109	0
110	0
111	0
112	0
113	1
114	15
115	26
116	90
117	116
118	24
119	4
120	1
121	7
122	0
123	0
127	0
128	1
129	3
130	8
131	11
132	16
133	50
134	7
135	2
136	0
137	0
140	0
141	0
142	0
143	0
144	1
145	2
146	4
147	1
148	0
149	1
150	1
151	0
157	0
158	1
159	4
160	1
161	8
162	36
163	107
164	11
165	1
175	0
176	1
177	4
179	117
180	11
181	1
187	0
188	0
189	0
190	0
191	7
192	3
193	25
194	2
195	0
201	0
202	0
203	0
204	1
205	1
206	2
207	26
208	82
209	733
210	79
211	10
212	0
217	0
219	0
221	1
222	0
251	18
252	2
253	0
