Mass Spectrum: Phenethyl alcohol, p-chloro-.alpha.-phenyl-
Formula: C14H13ClO
CAS: 6279-35-2
Molecular weight: 232
m/z	intensity
26	7
27	30
28	17
29	32
35	3
36	6
37	1
38	9
39	69
40	8
41	15
42	3
43	4
44	3
49	3
50	36
51	130
52	33
53	32
54	2
55	2
56	3
57	3
62	13
63	68
64	15
65	36
66	4
67	1
70	1
72	1
73	13
74	11
75	30
76	27
77	449
78	72
79	725
80	48
81	2
87	6
88	8
89	103
90	36
91	138
92	15
93	1
94	1
99	30
100	3
101	13
102	13
103	8
104	3
105	86
106	20
107	999
108	77
109	4
110	1
111	6
112	2
113	3
114	2
115	6
116	1
117	1
118	1
120	1
121	1
123	2
124	1
125	1
126	406
127	31
128	134
129	10
136	4
137	3
138	3
139	6
140	1
141	2
142	1
150	5
151	11
152	15
153	1
162	1
163	3
164	2
165	10
166	3
167	1
174	1
175	2
176	14
177	11
178	57
179	40
180	8
181	1
196	1
199	3
200	1
213	2
214	47
215	7
216	16
217	2
230	1
231	1
232	3
233	1
234	1
