Mass Spectrum: Pentanal, oxime
Formula: C5H11NO
CAS: 628-79-5
Molecular weight: 101
m/z	intensity
26	60
27	320
28	140
29	200
30	10
31	10
32	20
37	20
38	30
39	170
40	20
41	580
42	60
43	490
44	20
45	10
46	70
50	10
51	30
52	60
53	20
54	240
55	130
56	100
57	10
58	10
59	999
60	20
67	10
68	20
69	20
72	210
73	20
82	20
84	10
86	20
101	20
