Mass Spectrum: Zinc, dipropyl-
Formula: C6H14Zn
CAS: 628-91-1
Molecular weight: 150
m/z	intensity
26	11
27	148
28	17
29	30
30	0
31	2
36	0
37	4
38	10
39	81
40	13
41	163
42	32
43	999
44	31
45	1
50	0
51	0
53	0
55	1
56	0
57	2
59	0
64	45
65	12
66	25
67	10
68	17
69	4
70	0
71	0
73	0
77	0
78	5
79	7
80	4
81	4
82	3
83	2
84	0
85	0
89	0
91	3
92	2
93	22
94	2
95	12
96	2
97	7
103	0
105	3
106	7
107	134
108	13
109	76
110	18
111	49
112	3
113	1
119	1
121	1
122	1
123	0
124	0
126	0
135	8
136	0
137	4
138	1
139	3
149	1
150	65
151	5
152	36
153	7
154	24
155	1
156	0
