Mass Spectrum: Adipamide
Formula: C6H12N2O2
CAS: 628-94-4
Molecular weight: 144
m/z	intensity
15	7
16	4
26	12
27	77
28	82
29	66
30	20
31	5
38	9
39	93
40	19
41	162
42	91
43	300
44	999
45	49
46	12
50	13
51	17
52	4
53	25
54	29
55	259
56	116
57	168
58	21
59	402
60	17
68	32
69	20
70	5
71	12
72	421
73	156
74	6
80	5
81	9
82	26
83	31
84	10
85	61
86	646
87	22
98	27
99	437
100	66
101	22
109	6
110	56
111	42
112	6
126	2
127	138
128	29
129	3
144	14
