Mass Spectrum: 2-Fluoro-5-nitropyrimidine
Formula: C4H2FN3O2
CAS: 62802-41-9
Molecular weight: 143
m/z	intensity
24	9
25	33
26	33
27	32
28	42
29	9
30	475
31	293
32	11
33	1
36	3
37	15
38	59
39	60
40	11
41	3
42	2
43	5
44	10
45	10
46	91
47	23
48	2
49	1
50	22
51	250
52	359
53	32
54	6
55	66
56	3
57	36
58	113
59	4
62	1
63	1
64	4
65	6
66	8
67	3
68	8
69	23
70	999
71	40
72	2
73	4
74	11
75	1
76	6
77	31
78	6
79	1
81	7
84	17
85	118
86	92
87	4
88	1
93	2
94	1
95	2
96	26
97	153
98	10
99	6
100	9
113	6
123	2
124	8
125	3
126	39
127	19
128	2
129	1
131	1
140	2
141	2
143	732
144	44
145	5
