Mass Spectrum: 1,2:3,4-Di-O-isopropylidene-5,6-di-O-acetyl-D-mannitol
Formula: C16H26O8
CAS: 62819-11-8
Molecular weight: 346
m/z	intensity
57	70
58	500
85	860
101	999
111	530
115	200
127	400
143	470
153	500
171	130
185	130
187	460
226	50
245	120
273	80
331	130
