Mass Spectrum: Hexanoic acid, 3-phenylpropyl ester
Formula: C15H22O2
CAS: 6281-40-9
Molecular weight: 234
m/z	intensity
25	7
26	25
27	135
28	70
29	121
37	7
38	14
39	131
40	22
41	201
42	86
43	195
44	41
45	19
46	7
47	7
48	7
49	7
50	25
51	69
52	22
53	17
54	6
55	109
56	28
57	19
58	7
59	7
60	49
61	15
62	12
63	39
64	15
65	95
66	7
67	12
68	12
69	22
70	13
71	75
73	25
74	16
77	75
78	48
79	33
80	8
81	18
82	11
84	9
85	6
86	8
87	11
88	9
89	18
90	11
91	463
92	52
93	2
97	8
98	18
99	109
100	11
103	51
104	105
105	57
106	8
109	8
110	15
114	48
115	11
116	118
117	501
118	999
119	102
