Mass Spectrum: 1,3,5-Triazine, 1,3,5-tricyclohexylhexahydro-
Formula: C21H39N3
CAS: 6281-14-7
Molecular weight: 333
m/z	intensity
40	152
41	551
42	227
54	197
55	888
56	235
67	112
68	263
82	999
83	490
84	28
96	39
110	26
111	60
