Mass Spectrum: 2-Methyl-N,N-diisopropylpropanamide
Formula: C10H21NO
CAS: 6282-98-0
Molecular weight: 171
m/z	intensity
41	279
42	167
43	999
44	551
45	31
50	5
51	28
52	91
53	19
54	12
55	33
56	19
57	16
58	265
59	62
66	28
67	6
68	8
69	12
70	57
71	104
72	16
80	50
81	6
83	25
84	22
85	20
86	671
87	47
98	5
100	17
101	16
111	5
114	32
128	120
129	12
171	52
172	8
