Mass Spectrum: Azuleno[5,6-c]furan-1(3H)-one, 4,4a,5,6,7,9-hexahydro-3,4-dihydroxy-6,6,8-trimethyl-
Formula: C15H20O4
CAS: 62824-37-7
Molecular weight: 264
m/z	intensity
43	999
57	300
91	350
105	216
115	350
128	266
142	370
157	120
173	320
185	320
201	625
229	300
244	91
246	83
264	17
