Mass Spectrum: 3-Chloropropanoic acid, cyclopentyl ester
Formula: C8H13ClO2
CAS: 6282-82-2
Molecular weight: 176
m/z	intensity
24	1
25	7
26	55
27	236
28	292
29	49
30	4
31	9
33	1
35	12
36	68
37	11
38	25
39	200
40	68
41	290
42	51
43	45
44	123
45	17
46	1
48	1
49	11
50	23
51	32
52	33
53	93
54	17
55	245
56	30
57	62
58	13
59	2
60	2
61	12
62	25
63	535
64	19
65	195
66	118
67	58
68	999
69	353
70	74
71	16
72	20
73	57
74	3
75	2
76	1
77	27
78	14
79	68
80	12
81	85
82	31
83	19
84	23
85	191
86	62
87	10
89	6
90	9
91	974
92	42
93	318
94	12
95	43
96	11
97	8
98	8
99	2
103	2
104	1
105	5
106	152
107	26
108	133
109	113
110	61
111	34
112	4
113	169
114	13
115	3
117	1
119	44
120	7
121	15
122	7
123	2
130	1
132	25
133	26
134	11
135	8
139	1
141	2
145	3
147	2
148	3
