Mass Spectrum: 3,3-Dimethyl-1,4-diphenylazetidin-2-imine
Formula: C17H18N2
CAS: 62834-02-0
Molecular weight: 250
m/z	intensity
39	120
40	285
41	298
42	351
43	999
44	450
45	188
46	34
49	31
50	29
51	168
52	32
53	52
54	133
55	221
56	117
57	429
58	199
59	56
60	62
63	33
64	35
65	113
66	60
67	78
68	98
69	364
70	117
71	272
72	178
73	69
74	26
76	34
77	793
78	142
79	61
81	126
82	69
83	148
84	143
85	142
86	55
87	50
89	46
90	28
91	310
92	46
93	39
94	93
95	94
96	64
97	109
98	41
99	76
103	38
104	432
105	97
106	28
107	31
109	65
110	38
111	64
112	41
113	164
114	82
115	197
116	83
117	787
118	176
119	52
123	30
125	41
127	33
128	35
129	43
131	112
132	513
133	88
138	44
145	241
146	34
149	65
152	31
156	59
167	33
180	261
181	161
182	769
183	120
250	199
251	43
