Mass Spectrum: 4-Isopropyl-1,3-cyclohexanedione
Formula: C9H14O2
CAS: 62831-62-3
Molecular weight: 154
m/z	intensity
38	10
39	197
40	82
41	688
42	219
43	540
44	188
45	31
46	2
51	15
52	4
53	53
54	31
55	552
56	253
57	138
58	112
59	24
60	29
61	8
65	12
66	12
67	90
68	84
69	999
70	450
71	110
72	6
73	32
74	16
75	6
77	21
79	33
80	5
81	70
82	54
83	658
84	525
85	71
86	2
87	20
91	8
93	37
94	34
95	36
96	34
97	232
98	40
99	11
101	7
105	2
107	7
108	12
109	31
110	13
111	110
112	565
113	40
114	3
115	11
121	11
123	13
124	2
125	20
126	30
127	7
129	10
135	3
136	15
137	9
139	51
143	13
147	4
149	12
154	157
155	16
