Mass Spectrum: Pyridin-3-propionic acid, 3-oxo-, ethyl(ester)
Formula: C10H11NO3
CAS: 6283-81-4
Molecular weight: 193
m/z	intensity
12	4
13	7
14	41
15	105
16	7
17	2
18	4
19	9
26	84
27	345
28	129
29	476
30	31
31	32
37	18
38	50
39	172
40	15
41	33
42	102
43	80
44	8
45	33
46	3
47	1
50	141
51	372
52	90
53	52
54	5
55	4
56	1
57	1
59	2
60	5
61	6
62	16
63	51
64	25
65	89
66	17
67	6
69	107
70	5
71	2
73	2
74	8
75	14
76	27
78	492
79	89
80	32
81	3
87	32
88	2
89	1
90	5
91	14
92	26
93	12
94	5
95	2
96	4
102	4
103	5
104	17
106	999
107	75
108	14
109	1
115	4
118	1
119	14
120	11
121	51
122	17
123	3
124	2
130	1
132	1
134	1
136	2
137	2
147	80
148	123
149	146
150	15
151	1
164	16
165	17
166	4
167	0
176	2
193	73
194	41
195	5
196	0
