Mass Spectrum: Butane, 1,1',1'',1'''-(1,2-ethanediylidenetetrakis(oxy))tetrakis-
Formula: C18H38O4
CAS: 6284-81-7
Molecular weight: 318
m/z	intensity
39	74
40	8
41	399
42	17
43	12
47	12
50	9
53	4
54	3
55	27
56	33
57	999
58	38
60	46
76	4
77	57
78	3
85	3
87	16
100	11
101	16
102	25
103	149
104	16
116	6
132	4
133	14
134	2
155	3
156	3
157	6
158	16
159	152
160	11
172	6
189	17
