Mass Spectrum: Cyclohexanol, 5-methyl-2-(1-methylethyl)-, benzoate, [1R-(1.alpha.,2.beta.,5.alpha.)]-
Formula: C17H24O2
CAS: 6284-35-1
Molecular weight: 260
m/z	intensity
26	0
27	38
28	8
29	47
30	0
31	0
38	0
39	27
40	5
41	132
42	9
43	66
44	1
45	0
50	9
51	55
52	4
53	19
54	23
55	132
56	14
57	42
58	1
59	0
63	0
65	6
66	3
67	87
68	35
69	60
70	7
71	5
73	0
74	0
75	1
76	13
77	358
78	26
79	31
80	52
81	360
82	159
83	70
84	4
85	0
91	4
92	0
93	9
94	72
95	543
96	136
97	17
98	0
99	0
104	4
105	999
106	71
107	4
108	0
109	42
110	21
111	3
112	1
117	0
120	4
121	2
122	5
123	177
124	16
125	0
133	0
136	0
137	9
138	767
139	87
140	4
147	3
148	0
155	1
162	1
245	0
261	0
