Mass Spectrum: d-Mannitol, 1,4-anhydro-, tetraacetate
Formula: C14H20O9
CAS: 62860-21-3
Molecular weight: 332
m/z	intensity
27	10
28	43
29	11
30	1
31	6
35	0
36	4
37	0
38	1
39	7
40	2
41	15
42	16
43	999
44	25
45	8
46	0
47	0
50	0
51	0
52	0
53	2
54	1
55	13
56	4
57	14
58	2
59	1
60	3
61	10
62	0
63	0
65	0
66	0
67	1
68	43
69	56
70	7
71	6
72	1
73	23
74	2
75	0
76	0
77	0
78	0
79	0
80	0
81	5
82	5
83	4
84	3
85	83
86	22
87	5
88	0
91	0
93	2
94	0
95	1
96	0
97	18
98	5
99	14
100	2
101	2
102	3
103	25
104	2
105	0
109	3
110	63
111	43
112	5
113	3
114	1
115	109
116	12
117	1
121	0
124	0
125	0
126	0
127	41
128	23
129	6
130	0
131	0
132	0
133	0
136	0
139	7
140	1
141	2
142	0
143	0
144	0
145	31
146	1
147	0
149	8
150	1
152	6
153	33
154	3
155	0
157	18
158	3
159	0
167	4
168	0
169	1
170	41
171	5
172	0
173	0
175	2
183	0
184	0
187	74
188	6
189	1
199	0
200	0
212	19
213	3
214	0
217	10
218	0
229	0
230	0
231	0
257	0
259	2
260	0
272	2
273	0
