Mass Spectrum: Dihydro-3-methylene-5-methyl-2-furanone
Formula: C6H8O2
CAS: 62873-16-9
Molecular weight: 112
m/z	intensity
17	3
25	3
27	21
29	25
31	14
36	3
37	8
38	32
39	166
40	176
41	94
42	72
43	89
46	9
49	9
67	17
68	999
69	112
70	9
71	8
97	76
98	5
111	8
112	35
113	7
