Mass Spectrum: Ethanol, 1-(4-chlorophenyl)-2-(1,2,4-triazol-1-yl)-
Formula: C10H10ClN3O
CAS: 62881-59-8
Molecular weight: 223
m/z	intensity
33	3
34	1
35	3
36	8
37	7
38	20
39	41
40	43
41	28
42	15
43	38
44	7
45	2
47	1
50	90
51	136
52	22
53	19
55	135
56	166
57	5
58	1
60	3
61	10
62	16
63	31
64	6
65	17
66	2
67	1
68	1
70	84
73	26
74	38
75	96
77	705
78	65
79	6
82	477
83	999
84	37
85	11
86	6
87	8
89	33
90	9
91	24
92	2
93	0
94	0
95	0
96	0
97	2
98	2
99	7
100	2
101	12
102	11
103	9
105	30
106	9
107	1
109	1
111	62
112	28
113	125
114	15
115	36
116	5
117	1
118	1
119	1
120	1
121	1
122	0
123	2
125	25
127	10
128	1
129	0
130	0
131	0
132	0
134	0
135	0
136	3
137	6
139	76
141	315
143	114
144	5
145	0
146	0
149	0
150	1
151	1
152	3
154	26
155	3
156	7
157	1
162	0
165	0
166	0
167	0
168	0
169	0
170	0
171	0
177	0
179	19
180	15
181	6
182	5
183	1
184	0
185	0
186	0
188	0
193	0
194	0
204	0
205	0
206	0
208	0
221	0
223	11
224	1
225	3
226	0
