Mass Spectrum: 3-[(1,3-Dioxoisoindol-2-yl)methyl]benzonitrile
Formula: C16H10N2O2
CAS: 62898-68-4
Molecular weight: 262
m/z	intensity
34	3
36	6
37	73
38	126
39	249
40	76
41	38
42	5
43	20
44	56
45	7
48	2
49	39
50	724
51	382
52	114
53	36
54	5
55	19
56	51
57	13
61	27
62	69
63	159
64	82
65	32
66	41
67	5
69	7
70	16
71	13
72	8
73	33
74	221
75	356
76	999
77	703
78	118
79	10
81	5
82	6
83	1
85	2
86	6
87	13
88	48
89	219
90	78
91	6
92	4
93	2
94	4
95	6
99	8
100	5
101	16
102	248
103	139
104	693
105	541
106	151
107	10
114	30
115	27
116	124
117	12
120	6
121	2
127	3
128	10
129	521
130	238
131	37
132	133
133	136
134	13
149	53
150	10
151	37
152	15
153	2
155	9
157	8
160	125
161	8
164	16
165	14
167	1
176	4
177	22
178	13
179	14
180	9
189	19
190	47
191	19
201	2
205	130
206	38
207	3
233	172
234	176
235	33
236	3
244	292
245	60
246	3
261	19
262	797
263	141
264	12
