Mass Spectrum: 1,4-Cyclohexanediol, diacetate, trans-
Formula: C10H16O4
CAS: 6289-83-4
Molecular weight: 200
m/z	intensity
15	5
26	1
27	10
28	2
29	14
31	3
38	1
39	32
40	5
41	68
42	42
43	828
44	29
45	6
50	2
51	5
52	4
53	26
54	127
55	80
56	25
57	33
58	7
59	2
60	3
61	44
62	1
63	1
65	5
66	3
67	18
68	10
69	71
70	35
71	5
72	2
73	1
77	13
78	4
79	139
80	999
81	161
82	12
83	44
84	4
85	1
86	9
87	2
95	3
96	4
97	48
98	135
99	22
100	2
101	3
103	7
104	2
107	1
112	7
113	1
114	2
115	7
121	2
122	1
125	3
139	2
140	23
141	2
157	2
158	1
