Mass Spectrum: 3-Buten-1-one, 2,2-dimethyl-1-phenyl-
Formula: C12H14O
CAS: 62894-04-6
Molecular weight: 174
m/z	intensity
27	28
28	5
29	5
38	3
39	38
40	6
41	103
42	6
43	5
50	26
51	99
52	10
53	19
63	5
65	5
67	10
68	4
69	34
70	3
74	7
75	7
76	14
77	349
78	31
79	3
91	11
105	999
106	117
107	6
115	8
128	4
129	3
131	3
141	1
144	1
159	3
174	10
