Mass Spectrum: Tridecane
Formula: C13H28
CAS: 629-50-5
Molecular weight: 184
m/z	intensity
26	14
27	107
28	40
29	234
30	2
37	0
39	38
40	7
41	341
42	102
43	910
44	32
48	0
51	0
53	12
54	11
55	116
56	142
57	999
58	48
59	1
61	2
66	0
67	6
68	7
69	44
70	90
71	506
72	21
79	0
82	7
83	24
84	49
85	244
86	12
87	0
96	2
97	11
98	33
99	40
100	1
106	0
111	0
112	18
113	24
114	0
126	6
127	22
128	1
140	1
141	13
154	0
155	4
184	15
185	1
