Mass Spectrum: 2-Methylpentacosane
Formula: C26H54
CAS: 629-87-8
Molecular weight: 366
m/z	intensity
27	8
29	31
39	13
40	3
41	179
42	62
43	563
44	19
53	11
54	21
55	229
56	185
57	999
58	46
66	3
67	37
68	37
69	219
70	133
71	856
72	45
79	5
81	18
82	43
83	166
84	71
85	581
86	38
95	10
96	23
97	153
98	50
99	269
100	22
109	5
110	17
111	101
112	38
113	190
114	17
123	4
124	9
125	54
126	30
127	130
128	13
138	7
139	20
140	24
141	101
142	11
152	3
153	12
154	19
155	77
156	9
166	5
167	9
168	17
169	64
170	8
180	4
181	6
182	13
183	52
184	11
195	5
196	13
197	48
198	6
210	13
211	43
212	8
223	3
224	8
225	38
226	5
236	2
237	2
238	10
239	31
240	6
252	6
253	29
254	4
264	2
266	6
267	24
268	4
280	5
281	13
294	7
295	15
296	3
308	3
309	10
310	2
322	60
323	191
324	49
325	5
337	2
350	5
351	47
352	14
353	2
366	12
367	3
