Mass Spectrum: Heptanal dipropyl acetal
Formula: C13H28O2
CAS: 6290-36-4
Molecular weight: 216
m/z	intensity
15	6
17	1
26	9
27	177
28	36
29	135
30	8
31	217
32	4
37	2
38	4
39	79
40	16
41	365
42	111
43	999
44	116
45	56
46	1
47	111
48	1
50	1
51	3
52	2
53	15
54	18
55	473
56	50
57	706
58	53
59	56
60	59
61	29
62	1
65	3
66	3
67	33
68	61
69	128
70	53
71	90
72	13
73	31
74	6
75	3
77	2
79	4
80	1
81	59
82	9
83	22
84	9
85	35
86	31
87	18
88	4
89	811
90	36
91	5
93	3
94	1
95	27
96	38
97	580
98	47
99	175
100	12
101	8
102	8
103	2
107	1
109	3
110	1
111	4
112	3
113	76
114	19
115	235
116	19
117	2
125	5
126	1
127	11
128	4
129	3
130	4
131	877
132	68
133	6
135	1
139	2
141	3
142	1
143	2
153	3
154	1
155	3
156	81
157	570
158	62
159	4
171	1
173	2
182	1
215	2
