Mass Spectrum: Glycine, N-(2-ethoxy-2-oxoethyl)-, ethyl ester
Formula: C8H15NO4
CAS: 6290-05-7
Molecular weight: 189
m/z	intensity
26	2
27	16
28	13
29	30
30	13
31	8
41	28
42	333
43	81
44	78
45	9
58	14
59	45
60	52
61	5
69	2
70	12
74	2
86	25
87	3
88	117
89	6
102	4
116	999
117	73
118	7
143	42
144	8
160	19
189	44
190	4
