Mass Spectrum: Isobutyraldehyde, bis(2-methylallyl)acetal
Formula: C12H22O2
CAS: 6290-52-4
Molecular weight: 198
m/z	intensity
39	140
40	60
41	140
42	70
43	210
44	50
45	30
53	80
54	70
55	999
56	180
57	140
58	40
67	80
68	30
69	80
70	130
71	310
72	90
73	60
81	50
83	50
85	40
97	40
99	60
109	240
110	50
111	50
126	80
127	90
143	40
155	120
198	1
