Mass Spectrum: Propanoic acid, 3,3'-sulfonylbis-
Formula: C6H10O6S
CAS: 6291-88-9
Molecular weight: 210
m/z	intensity
14	2
15	4
16	1
17	5
18	25
19	5
25	3
26	43
27	216
28	213
29	245
30	31
31	25
32	3
33	1
34	2
35	1
39	2
41	3
42	9
43	69
44	28
45	251
46	13
47	10
48	25
49	5
50	4
51	1
52	1
53	6
54	8
55	577
56	412
57	23
58	8
59	9
60	7
61	2
63	4
64	24
65	57
66	15
67	3
68	5
69	2
71	9
72	54
73	697
74	999
75	56
76	9
77	2
78	1
81	1
82	7
83	2
84	1
85	2
86	1
87	2
88	1
89	4
90	1
91	18
92	1
93	2
95	1
97	1
99	2
100	70
101	15
102	5
103	32
104	9
105	2
106	3
109	1
110	4
111	1
118	1
119	1
120	6
121	58
122	3
123	3
128	31
129	3
132	1
136	4
137	341
138	18
139	18
140	1
146	1
147	7
149	2
155	24
156	1
157	1
164	3
165	2
174	1
175	3
178	1
192	44
193	32
194	5
195	2
211	10
