Mass Spectrum: Pyrrole-3-propanoic acid, 4-acetyl-2-benzyloxycarbonyl-5-methyl, methyl ester
Formula: C19H21NO5
CAS: 62916-29-4
Molecular weight: 343
m/z	intensity
26	3
27	31
28	6
29	58
30	2
31	107
35	4
36	1
37	1
38	4
39	38
40	5
41	53
42	22
43	90
44	9
45	33
46	1
47	10
48	4
49	101
50	11
51	33
52	12
53	16
54	4
55	20
56	25
57	37
58	3
59	55
60	6
61	1
62	3
63	18
64	10
65	119
66	17
67	19
68	4
69	12
70	4
71	9
72	3
73	8
74	71
75	4
76	13
77	48
78	18
79	31
80	8
81	8
82	5
83	10
84	73
85	9
86	51
87	2
88	10
89	23
90	15
91	999
92	115
93	22
94	14
95	20
96	4
97	6
98	2
99	3
100	1
101	2
102	2
103	5
104	24
105	20
106	22
107	20
108	16
109	5
110	2
111	4
112	2
113	2
114	1
115	4
116	3
117	5
118	7
119	6
120	15
121	18
122	28
123	11
124	4
125	2
126	1
127	2
128	3
129	5
130	4
131	4
132	16
133	17
134	110
135	21
136	23
137	5
138	9
139	3
140	2
141	2
142	1
143	2
144	6
145	3
146	13
147	14
148	28
149	134
150	28
151	18
152	17
153	4
154	2
155	2
156	2
157	1
158	4
159	4
160	132
161	22
162	88
163	16
164	51
165	16
166	43
167	13
168	9
169	4
170	3
171	1
172	1
173	3
174	31
175	33
176	59
177	23
178	509
179	66
180	15
181	7
182	17
183	5
184	7
185	4
186	3
187	1
188	3
189	1
190	6
191	19
192	276
193	46
194	37
195	8
196	8
197	2
198	4
199	1
200	1
201	1
202	29
203	5
204	3
205	8
206	7
207	13
208	18
209	11
210	88
211	12
212	4
213	2
214	2
215	1
216	1
217	3
218	2
219	2
220	142
221	20
222	12
223	9
224	25
225	6
226	32
227	6
228	5
229	24
230	4
231	1
232	1
234	61
235	10
236	3
237	7
238	3
239	3
240	10
241	6
242	11
243	2
250	4
251	6
252	151
253	22
254	6
255	12
256	23
257	6
258	3
259	1
264	3
265	3
266	3
267	2
268	20
269	40
270	82
271	14
272	2
278	0
279	1
280	1
281	1
282	8
283	63
284	16
285	2
286	3
287	1
296	2
297	1
298	2
299	1
300	36
301	31
302	5
303	1
310	0
311	17
312	23
313	5
314	2
342	1
343	112
344	27
345	4
346	1
