Mass Spectrum: 2-Methyl-4-(2,6,6-trimethylcyclohex-1-enyl)but-2-en-1-ol
Formula: C14H24O
CAS: 62924-17-8
Molecular weight: 208
m/z	intensity
27	257
28	88
29	300
30	16
31	102
36	19
38	14
39	381
40	71
41	886
42	71
43	400
44	132
45	32
50	24
51	106
52	44
53	305
54	52
55	572
56	92
57	155
58	83
59	37
63	49
64	25
65	188
66	59
67	296
68	80
69	419
70	58
71	112
72	22
74	13
75	19
77	389
78	89
79	415
80	120
81	657
82	127
83	127
84	65
85	32
89	36
91	577
92	137
93	436
94	161
95	460
96	95
97	55
98	19
102	17
103	67
104	36
105	999
106	245
107	570
108	151
109	246
110	54
111	50
112	40
115	99
116	52
117	96
118	42
119	745
120	349
121	378
122	160
123	738
124	98
125	31
126	34
127	19
128	45
129	49
130	26
131	112
132	38
133	386
134	212
135	156
136	70
137	111
138	120
139	25
141	27
142	14
143	21
144	19
145	65
146	34
147	217
148	57
149	46
150	23
151	25
152	18
154	14
159	36
160	20
161	45
162	17
163	27
165	40
173	45
174	15
175	357
176	63
177	134
178	26
188	15
190	309
191	75
192	30
193	86
194	17
206	38
208	259
209	47
210	10
