Mass Spectrum: 3,4-Dichlorobenzaldehyde thiosemicarbazone
Formula: C8H7Cl2N3S
CAS: 6292-74-6
Molecular weight: 247
m/z	intensity
41	5
42	31
43	999
44	18
45	6
46	5
47	13
48	17
49	8
50	27
51	11
52	6
57	4
58	3
59	30
60	369
61	26
62	49
63	38
64	5
65	2
72	6
73	45
74	52
75	60
76	357
77	10
78	18
83	2
84	11
85	13
86	16
87	22
88	8
89	19
90	18
91	5
96	3
97	16
98	3
99	19
100	13
101	5
102	47
103	1
104	3
107	5
108	2
109	51
110	11
111	19
112	4
113	2
114	0
115	1
116	3
117	12
118	17
119	1
121	3
123	79
124	24
125	39
126	24
127	4
128	4
133	10
134	3
135	7
136	10
137	4
138	3
139	0
143	0
144	0
145	45
146	14
147	22
148	9
149	5
150	3
151	12
152	35
153	30
154	13
155	8
157	4
158	6
159	9
160	10
161	47
162	2
163	32
165	5
169	1
170	0
171	12
172	74
173	12
174	50
175	6
176	7
177	0
178	3
184	0
185	0
186	0
187	65
188	35
189	43
190	23
191	6
192	4
204	3
206	3
212	2
214	6
216	10
218	4
230	14
231	5
232	9
233	3
234	3
245	4
246	5
247	275
248	121
249	181
250	83
251	27
252	16
253	3
