Mass Spectrum: .alpha.-l-Mannofuranose, 6-deoxy-, cyclic 2,3-(ethylboronate) 1,5-diacetate
Formula: C12H19BO7
CAS: 62930-60-3
Molecular weight: 286
m/z	intensity
25	0
26	5
27	25
28	33
29	50
30	1
31	5
32	5
37	1
38	1
39	20
40	4
41	18
42	21
43	999
44	23
45	14
47	0
49	0
50	0
51	1
52	1
53	13
54	7
55	20
56	6
57	29
58	17
59	2
60	2
61	6
63	0
65	1
66	1
67	2
68	7
69	38
70	24
71	35
72	2
73	2
74	1
75	5
78	0
79	1
80	0
81	4
82	8
83	20
84	4
85	10
86	4
87	17
88	1
89	0
94	0
95	3
96	3
97	11
98	37
99	42
100	10
101	2
102	1
103	1
108	0
109	3
110	13
111	45
112	5
113	7
114	0
115	0
116	0
117	73
118	4
119	0
121	0
122	0
123	0
124	9
125	35
126	10
127	19
128	6
129	4
130	0
136	1
137	7
138	19
139	8
140	9
141	10
142	4
143	0
144	2
150	0
151	1
152	1
153	1
154	8
155	31
156	6
157	7
158	1
159	22
160	1
165	1
166	3
167	5
168	3
169	12
170	7
171	1
172	0
178	0
180	0
181	3
182	16
183	10
184	29
185	5
186	0
196	1
197	4
198	3
199	10
200	1
213	0
225	5
226	28
227	35
228	4
229	0
243	0
