Mass Spectrum: .beta.-L-Mannofuranose, 6-deoxy-, cyclic 1,2:3,5-bis(ethylboronate)
Formula: C10H18B2O5
CAS: 62930-52-3
Molecular weight: 240
m/z	intensity
24	0
25	9
26	64
27	309
28	69
29	806
30	11
31	21
33	0
34	0
36	1
37	10
38	19
39	190
40	26
41	175
42	71
43	294
44	32
45	122
46	2
47	1
49	1
50	8
51	17
52	19
53	139
54	66
55	196
56	103
57	442
58	21
59	7
60	0
61	1
62	2
63	4
64	2
65	15
66	12
67	13
68	21
69	75
70	113
71	100
72	11
73	21
74	1
75	1
77	2
78	0
79	3
80	4
81	15
82	78
83	275
84	27
85	22
86	6
87	3
88	1
89	0
91	2
92	0
93	1
94	2
95	8
96	36
97	118
98	477
99	999
100	77
101	114
102	5
104	0
106	0
107	3
108	8
109	31
110	261
111	999
112	170
113	389
114	23
115	1
122	1
123	5
124	21
125	56
126	16
127	34
128	4
129	1
130	0
135	0
136	2
137	12
138	22
139	22
140	24
141	12
142	17
143	1
150	0
151	3
152	3
153	6
154	4
155	15
156	1
165	9
166	50
167	100
168	8
169	1
178	0
181	1
182	1
183	3
185	0
191	0
194	2
195	8
196	13
197	2
198	0
208	0
209	11
210	103
211	205
212	19
213	2
239	0
240	1
