Mass Spectrum: 2-(Acetylimino)-3-(diacetylamino)-2,3-dihydrothiazolo[4,5-b]quinoxaline
Formula: C15H13N5O3S
CAS: 62933-70-4
Molecular weight: 343
m/z	intensity
34	0
36	1
37	0
38	4
39	13
40	8
41	8
42	48
43	999
44	26
45	5
46	2
48	0
49	0
50	11
51	12
52	6
53	3
54	1
55	3
56	6
57	3
58	2
59	3
60	1
61	1
62	4
63	12
64	10
65	1
66	0
67	1
68	2
69	5
70	13
71	0
72	3
73	3
74	6
75	28
76	22
77	7
78	4
79	0
80	0
81	3
83	5
84	4
85	1
86	9
87	1
88	2
89	3
90	32
91	3
92	1
93	1
94	1
95	1
96	2
97	0
99	2
100	0
101	6
102	60
103	20
104	6
105	2
106	1
107	11
108	3
109	2
110	0
111	0
112	0
115	2
116	7
117	4
118	14
119	1
120	0
121	1
122	9
123	0
124	1
125	0
127	0
128	5
129	36
130	14
131	5
132	3
133	7
134	33
135	6
136	2
137	1
138	0
141	0
142	4
143	14
144	9
145	2
146	0
147	1
148	3
149	27
150	3
151	1
154	3
155	0
156	1
157	1
158	7
159	2
160	27
161	25
162	19
163	3
164	1
168	1
169	7
170	1
171	1
172	2
173	2
174	12
175	8
176	3
177	0
178	0
179	0
181	0
183	1
184	0
186	2
187	4
188	18
189	45
190	119
191	16
192	5
194	0
196	0
198	0
199	0
200	11
201	40
202	31
203	7
204	1
205	0
207	0
208	0
212	0
214	0
215	4
216	26
217	508
218	62
219	23
220	1
223	1
224	0
226	0
228	3
229	4
230	1
231	1
232	2
235	0
238	0
240	1
241	227
242	305
243	57
244	88
245	13
246	3
251	2
252	0
253	0
256	1
257	0
258	7
259	36
260	4
261	0
267	0
272	0
275	1
276	1
277	0
278	0
283	0
284	125
285	20
286	8
287	1
300	0
301	4
302	1
303	0
318	0
319	0
343	52
344	10
345	3
346	0
