Mass Spectrum: 4-Carbethoxy-2-oxazolidone
Formula: C6H9NO4
CAS: 62941-94-0
Molecular weight: 159
m/z	intensity
41	235
42	137
43	999
44	30
45	357
46	16
47	2
49	0
50	1
51	4
52	6
53	14
54	19
55	53
56	17
57	9
58	169
59	8
60	15
61	1
62	1
63	3
64	0
65	0
66	0
67	2
68	5
69	21
70	12
71	7
72	3
73	20
74	2
75	2
76	1
77	7
78	2
79	2
80	4
81	2
82	0
83	15
84	6
85	21
86	534
87	424
88	4
89	1
90	0
91	1
92	0
93	0
94	0
95	3
96	1
97	1
98	1
99	1
100	2
101	12
102	2
103	0
104	1
105	1
106	2
107	3
108	1
109	0
110	0
111	0
112	0
113	0
114	3
115	1
116	3
117	0
128	2
129	0
130	4
131	31
132	2
158	4
159	68
160	4
