Mass Spectrum: dl-2-Benzamidooctanoic acid
Formula: C15H21NO3
CAS: 6294-94-6
Molecular weight: 263
m/z	intensity
17	4
18	1
27	10
28	9
29	10
30	1
38	1
39	9
40	1
41	21
42	5
43	26
44	7
45	1
50	9
51	34
52	4
53	4
54	4
55	12
56	10
57	6
63	2
65	2
67	5
68	3
69	5
70	9
71	2
73	2
74	3
75	5
76	21
77	238
78	19
79	6
80	1
81	5
82	5
83	3
84	3
85	1
88	2
89	2
90	1
91	5
92	1
93	1
94	1
95	7
96	5
97	3
98	2
99	1
102	2
103	44
104	33
105	999
106	91
107	7
109	1
110	3
111	1
112	15
113	4
114	1
115	2
116	2
117	4
118	2
119	14
120	5
121	16
122	123
123	10
124	12
125	2
128	1
129	2
130	9
131	2
132	3
133	12
134	7
135	9
136	1
139	1
140	17
141	17
142	2
143	2
144	3
145	1
146	6
147	152
148	33
149	6
154	1
155	1
156	7
157	1
158	17
159	3
160	6
161	133
162	20
163	4
167	1
168	1
170	1
171	1
172	2
173	4
174	76
175	10
176	10
177	4
178	2
179	178
180	18
181	2
182	1
184	2
186	2
187	16
188	6
189	3
190	4
191	1
192	5
193	1
196	1
197	1
198	3
199	4
200	4
201	2
202	13
203	35
204	6
206	4
214	1
215	1
216	5
217	6
218	76
219	17
220	10
221	8
222	1
227	2
234	3
241	1
243	8
244	2
245	61
246	12
247	1
262	2
263	34
264	7
265	1
