Mass Spectrum: Cyclohexane, 1-bromo-2-methyl-
Formula: C7H13Br
CAS: 6294-39-9
Molecular weight: 176
m/z	intensity
15	2
26	5
27	65
28	13
29	43
35	1
36	12
37	2
38	9
39	160
40	19
41	156
42	20
43	45
45	4
46	6
47	3
50	8
51	18
52	9
53	55
54	44
55	776
56	41
57	9
62	3
63	5
64	1
65	14
66	9
67	93
68	59
69	65
70	6
71	4
77	16
78	4
79	29
80	6
81	156
82	15
83	78
84	6
85	2
91	7
92	1
93	5
94	2
95	26
96	51
97	999
98	77
99	3
105	1
106	1
107	3
108	2
109	2
110	3
111	5
112	1
117	1
119	3
120	1
121	3
122	1
133	1
134	1
135	3
136	2
137	2
149	1
151	1
162	2
164	2
176	4
177	1
178	3
