Mass Spectrum: 2-Oxazolidinone, 4-(hydroxymethyl)-5-phenyl-
Formula: C10H11NO3
CAS: 62941-30-4
Molecular weight: 193
m/z	intensity
26	6
27	34
28	77
29	32
30	20
31	98
37	5
38	16
39	75
40	14
41	28
42	38
43	47
44	11
45	3
49	3
50	58
51	136
52	35
53	11
54	5
55	7
56	8
57	5
58	8
59	10
60	5
61	6
62	23
63	65
64	24
65	92
66	8
67	3
68	2
69	35
70	4
71	3
72	1
73	3
74	17
75	16
76	17
77	203
78	60
79	189
80	14
81	2
82	1
83	3
84	3
85	12
86	12
87	31
88	6
89	86
90	86
91	491
92	45
93	4
94	2
95	1
96	1
97	2
98	1
101	2
102	7
103	20
104	29
105	243
106	57
107	188
108	17
109	1
115	6
116	24
117	146
118	999
119	152
120	14
121	2
128	10
129	1
130	12
131	7
132	83
133	10
134	5
135	1
141	3
142	2
143	1
144	1
145	1
149	5
150	134
151	14
152	2
153	1
154	1
155	2
156	1
161	20
162	295
163	39
164	4
165	1
167	3
168	1
175	25
176	3
193	78
194	10
195	1
