Mass Spectrum: Gomisin F
Formula: C28H34O9
CAS: 62956-47-2
Molecular weight: 514
m/z	intensity
43	990
55	999
56	130
69	250
71	220
83	920
95	100
97	120
99	240
109	270
123	180
125	100
285	170
299	120
300	660
301	470
312	310
313	270
316	270
328	180
329	170
330	130
331	300
340	120
342	810
343	960
344	230
371	310
413	100
414	480
415	150
514	620
515	210
