Mass Spectrum: 4-Octene, 2,6-dimethyl-, [S-(E)]-
Formula: C10H20
CAS: 62960-76-3
Molecular weight: 140
m/z	intensity
40	12
41	203
42	26
43	132
52	10
53	67
55	999
56	221
57	101
65	27
67	105
68	43
69	849
70	438
71	63
77	33
79	35
81	51
82	19
83	236
84	124
97	41
111	145
112	22
125	14
140	217
141	24
