Mass Spectrum: 4-Octene, 2,6-dimethyl-, [S-(Z)]-
Formula: C10H20
CAS: 62960-77-4
Molecular weight: 140
m/z	intensity
27	120
29	140
39	100
41	400
43	260
53	50
55	999
56	280
57	140
67	60
69	710
70	410
71	80
83	170
84	100
95	20
97	30
111	100
125	20
140	130
