Mass Spectrum: Benzeneacetamide, N-[2-(hydroxyimino)ethyl]-
Formula: C10H12N2O2
CAS: 62972-89-8
Molecular weight: 192
m/z	intensity
14	1
15	10
16	2
17	2
18	10
26	3
27	23
28	38
29	18
30	130
31	14
32	1
37	2
38	9
39	78
40	18
41	26
42	7
43	9
44	20
45	10
46	2
50	14
51	38
52	10
53	4
54	2
55	3
56	144
57	59
58	266
59	9
60	1
61	3
62	13
63	50
64	16
65	201
66	11
67	2
69	2
70	1
71	1
73	9
74	78
75	6
76	3
77	10
78	6
79	3
81	3
82	1
83	20
84	2
85	9
86	3
87	2
88	1
89	57
90	50
91	999
92	518
93	36
94	2
97	1
100	2
101	273
102	11
103	3
104	5
105	3
106	6
107	4
116	2
117	4
118	65
119	15
120	5
130	2
131	2
132	3
133	1
134	1
135	3
136	5
145	1
146	3
147	4
148	11
149	11
150	1
157	3
158	2
160	8
161	1
162	8
163	1
174	44
175	45
176	8
192	334
193	39
194	3
