Mass Spectrum: Urea, 1-(4-aminophenyl)-3-cyclohexyl-
Formula: C13H19N3O
CAS: 62972-70-7
Molecular weight: 233
m/z	intensity
33	11
34	0
36	0
37	0
39	37
40	18
41	71
42	15
43	20
44	8
45	0
50	2
51	8
52	21
53	41
54	20
55	55
56	31
57	2
58	0
61	0
62	0
63	6
65	17
66	4
67	9
68	2
69	2
70	2
71	0
74	0
75	0
76	1
77	3
78	5
80	89
81	32
82	5
83	7
84	1
85	0
86	0
90	4
91	4
92	2
93	3
95	3
96	0
98	10
99	0
100	0
102	0
103	0
105	11
108	999
109	49
112	0
119	0
120	0
121	1
122	0
127	0
128	0
130	0
132	0
134	24
135	2
136	0
143	0
145	0
147	1
148	0
150	1
151	1
152	0
157	0
183	0
185	0
230	0
231	0
233	81
234	10
235	0
