Mass Spectrum: 17-Bromopregnane-3,20-dione
Formula: C21H31BrO2
CAS: 62973-42-6
Molecular weight: 394
m/z	intensity
41	205
43	999
45	28
47	29
49	329
51	95
53	90
55	239
57	37
58	1
59	3
60	1
61	3
63	4
65	25
67	133
68	39
69	61
71	86
73	2
75	0
77	76
79	208
81	128
84	219
85	46
86	53
88	12
89	1
91	131
93	123
95	160
97	36
98	7
99	7
101	3
103	6
105	98
107	137
108	6
109	60
110	2
111	17
113	5
115	13
116	5
117	27
119	40
121	73
123	90
124	19
125	6
127	2
128	4
129	8
131	27
133	51
134	5
135	82
136	3
137	17
138	2
139	1
141	3
142	2
143	9
144	1
145	25
147	53
149	75
150	7
151	16
153	2
155	4
157	14
159	41
161	114
162	6
163	18
164	0
165	4
167	1
169	4
170	1
171	14
172	1
173	27
174	4
175	34
176	7
177	12
179	6
183	2
185	10
187	31
188	5
189	14
191	5
192	1
193	2
195	1
197	6
198	0
199	9
200	1
201	12
203	17
205	13
206	1
209	0
211	5
213	17
215	21
216	1
217	19
218	2
219	1
220	0
223	2
225	5
227	8
228	0
229	11
230	4
231	58
232	11
233	43
234	1
237	0
239	6
240	1
241	10
242	1
243	10
244	5
245	16
246	7
247	7
251	2
253	4
255	15
256	6
257	17
258	31
259	11
260	1
261	0
265	1
267	2
269	16
270	4
271	30
272	13
273	17
274	3
275	0
279	3
281	2
283	14
284	5
285	8
287	11
288	1
293	1
295	8
296	3
297	58
298	55
299	32
300	15
301	79
302	25
303	5
305	1
307	0
309	1
310	0
311	3
312	1
313	16
314	71
315	239
316	108
317	33
318	5
319	1
321	1
322	1
323	2
324	1
325	0
326	0
329	0
330	0
331	1
333	1
335	2
336	5
337	3
338	5
339	2
349	0
350	3
351	1
352	3
353	0
354	0
376	3
377	7
378	2
379	7
380	2
381	5
382	2
391	0
393	1
394	33
395	11
396	33
397	11
398	4
399	0
400	0
