Mass Spectrum: Uracil, 1,3-bis(tetrahydro-2-furyl)-5-fluoro-
Formula: C12H15FN2O4
CAS: 62987-05-7
Molecular weight: 270
m/z	intensity
41	277
42	107
43	613
44	86
45	12
46	6
47	8
48	1
49	15
50	2
51	21
52	10
53	18
54	14
55	9
56	3
57	14
58	55
59	16
60	21
67	2
68	7
69	20
70	61
71	999
72	52
73	6
74	5
78	2
80	2
83	3
84	8
85	7
86	11
87	43
88	11
97	2
98	16
99	12
100	5
102	2
110	0
113	2
114	11
116	0
126	3
127	15
128	2
130	22
131	22
138	1
139	0
144	0
156	1
169	1
170	1
171	0
172	1
200	68
201	9
239	1
249	1
250	1
251	7
252	1
253	0
264	2
267	1
268	1
269	2
270	251
271	30
272	4
