Mass Spectrum: Furan-2-one, 3,4-dihydroxy-5-[1-hydroxy-2-fluoroethyl]-
Formula: C6H7FO5
CAS: 62983-45-3
Molecular weight: 178
m/z	intensity
41	132
42	125
43	306
44	651
45	196
46	253
47	21
48	143
49	5
50	91
51	23
52	37
53	23
54	38
55	162
56	151
57	171
58	79
59	72
60	110
61	83
62	15
63	15
64	39
66	999
67	20
68	103
69	111
70	36
71	56
72	42
73	129
74	64
75	9
76	16
77	41
78	78
79	14
80	4
81	14
82	34
84	767
85	109
86	74
87	62
88	14
89	9
90	14
91	27
92	4
93	6
94	14
95	35
96	14
97	18
98	19
99	16
100	32
101	17
102	18
103	11
104	4
105	10
106	38
107	19
108	5
109	5
110	6
111	10
112	29
113	11
114	9
115	11
116	8
117	6
118	5
119	12
120	4
121	6
122	4
123	4
124	44
125	7
126	7
127	6
128	6
129	16
130	7
131	5
132	3
133	4
134	3
135	5
136	3
137	3
138	4
139	4
140	4
141	4
142	2
143	5
144	2
145	1
146	1
147	2
148	3
149	12
150	5
151	11
152	4
153	3
154	3
155	3
156	2
157	6
158	2
159	1
160	0
161	0
162	0
163	2
164	2
165	3
166	3
167	5
168	2
169	2
170	1
171	5
172	1
173	1
174	0
175	1
176	0
177	2
178	5
179	2
180	2
181	1
