Mass Spectrum: Benzenesulfonamide, 4-(3-chloro-1,4-naphthoquinon-2-ylamino)-N-pyridin-2-yl-
Formula: C21H14ClN3O4S
CAS: 6298-15-3
Molecular weight: 439
m/z	intensity
41	86
42	56
43	216
44	21
45	999
46	83
47	233
48	48
49	203
50	237
51	276
52	71
53	36
55	13
58	114
59	228
62	40
63	138
64	146
65	675
66	224
67	153
69	15
73	13
74	55
75	154
76	609
77	233
78	130
79	34
82	30
84	84
86	64
87	73
88	85
89	65
90	28
91	33
92	203
93	84
94	108
95	76
99	108
100	25
101	62
102	30
103	35
104	107
105	155
108	77
109	13
111	13
113	28
114	72
115	51
123	77
125	31
128	30
129	42
130	12
135	139
137	51
140	44
141	30
150	28
151	34
152	12
156	37
157	27
163	146
164	70
165	52
167	15
168	137
169	51
170	133
180	12
184	200
185	124
186	11
188	25
189	38
190	205
191	132
192	13
194	59
218	33
219	147
220	32
234	33
246	38
247	158
248	38
254	15
281	28
282	37
283	14
298	81
300	14
338	113
339	15
340	100
341	27
374	630
375	979
376	250
377	338
378	84
