Mass Spectrum: 4-Pentenic acid, 2,4,5-tribenzoylamido-, methyl ester
Formula: C27H25N3O5
CAS: 6298-09-5
Molecular weight: 471
m/z	intensity
44	4
51	24
76	13
77	297
78	17
104	10
105	999
106	78
157	139
158	58
159	6
176	27
213	12
228	31
229	100
230	12
245	17
279	381
280	76
291	13
350	49
351	7
471	105
472	31
