Mass Spectrum: 1,3,5-Triazine-2,4,6(1H,3H,5H)-trione, 1,3,5-tris(2-chloroethyl)-
Formula: C9H12Cl3N3O3
CAS: 6299-37-2
Molecular weight: 315
m/z	intensity
26	10
27	49
28	39
29	3
30	0
31	1
32	0
33	0
34	0
35	1
36	0
38	0
39	2
40	26
41	25
42	74
43	11
44	23
45	1
46	0
47	2
48	8
49	133
50	5
51	43
52	1
53	2
54	6
56	999
57	25
58	4
60	1
61	11
62	55
63	73
64	22
65	22
67	2
68	15
69	47
70	675
71	22
72	2
73	0
74	1
75	2
76	14
77	4
78	4
79	1
80	0
81	0
82	2
83	5
84	6
85	1
86	1
87	3
88	0
89	0
90	1
91	0
92	0
93	0
96	0
97	3
98	4
99	40
100	1
101	0
102	0
103	4
104	34
105	3
106	25
107	1
108	4
109	0
110	0
111	3
112	7
113	18
114	1
116	0
117	0
118	0
121	0
123	0
124	0
125	4
126	0
127	0
128	0
129	0
130	1
131	1
132	0
133	1
135	0
136	0
139	1
140	0
143	0
146	0
147	2
148	0
149	6
150	0
151	1
152	0
153	0
154	2
156	7
157	0
160	0
161	152
162	8
163	48
164	3
165	0
166	0
168	1
169	0
170	0
173	0
174	0
175	10
176	1
177	3
181	0
182	7
183	0
184	0
189	0
190	0
192	2
193	0
194	1
196	1
197	0
201	0
202	0
203	1
204	1
205	0
207	0
208	0
209	0
210	0
213	0
217	4
218	19
219	3
220	5
221	0
224	0
230	3
231	1
232	1
234	0
241	0
244	23
245	4
246	8
247	1
253	0
254	6
255	0
256	4
257	0
258	0
261	0
262	0
266	59
267	6
268	32
269	3
270	5
272	0
280	255
281	46
282	164
283	20
284	26
285	3
286	0
313	0
315	12
316	2
317	12
318	1
319	3
320	0
321	0
