Mass Spectrum: 1H-Benzotriazole, 4-nitro-
Formula: C6H4N4O2
CAS: 6299-39-4
Molecular weight: 164
m/z	intensity
33	1
34	2
37	220
38	225
39	92
40	23
41	15
42	1
43	5
45	21
46	59
48	14
51	484
52	333
53	48
55	29
56	2
57	0
61	267
62	329
63	999
64	314
65	137
66	44
67	8
68	0
69	0
72	1
74	62
75	92
76	64
78	205
79	36
80	6
81	2
86	11
87	73
88	64
89	63
90	132
91	196
92	18
93	12
94	0
100	0
101	0
102	1
103	2
104	3
106	83
107	4
117	0
118	11
119	13
120	3
121	0
134	9
136	132
148	0
159	0
161	2
162	7
164	282
165	16
166	1
