Mass Spectrum: 3-Methyl-1,2,4-benzotriazine
Formula: C8H7N3
CAS: 6299-94-1
Molecular weight: 145
m/z	intensity
35	0
36	5
37	84
38	102
39	103
40	51
41	28
42	52
43	5
44	8
45	2
46	0
47	0
48	5
49	50
50	810
51	140
52	70
53	13
54	1
55	2
56	1
57	3
59	59
60	4
61	31
62	45
63	91
64	69
65	11
66	5
67	1
69	1
70	0
71	0
72	2
73	34
74	205
75	222
76	850
77	588
78	42
79	2
82	2
83	2
84	0
85	3
86	5
87	9
88	13
89	59
90	189
91	24
92	1
97	0
98	0
99	3
100	3
101	1
102	2
103	1
111	0
114	2
116	140
117	999
118	97
119	4
145	25
146	3
147	0
