Mass Spectrum: L-Methionine
Formula: C5H11NO2S
CAS: 63-68-3
Molecular weight: 149
m/z	intensity
26	13
27	114
28	346
29	88
30	105
31	3
33	2
34	3
35	65
37	4
38	6
39	39
40	7
41	106
42	115
43	60
44	35
45	135
46	73
47	134
48	41
49	41
50	3
51	4
52	17
53	7
54	58
55	265
56	576
57	107
58	22
59	50
60	21
61	999
62	44
63	47
64	2
65	1
66	0
67	1
68	3
69	4
70	22
71	9
72	4
73	14
74	292
75	382
76	21
77	19
78	1
79	1
80	1
81	2
82	1
83	218
84	16
85	15
86	24
87	107
88	106
89	11
90	7
91	5
92	1
93	1
99	11
100	7
101	238
102	21
103	7
104	203
105	13
106	10
114	73
115	11
116	132
117	14
118	7
119	1
131	390
132	66
133	23
134	10
135	1
149	278
150	22
151	14
152	2
153	1
