Mass Spectrum: 1-Naphthalenemethanol, .alpha.,.alpha.-diphenyl-
Formula: C23H18O
CAS: 630-95-5
Molecular weight: 310
m/z	intensity
27	3
28	1
31	2
39	8
41	1
43	1
45	1
50	9
51	53
52	6
53	2
55	2
57	2
62	3
63	12
64	3
65	3
69	1
71	1
74	8
75	15
76	16
77	445
78	39
79	3
81	1
83	1
85	1
86	2
87	6
88	6
89	14
90	1
91	11
92	1
93	2
94	4
95	2
96	1
97	1
98	2
99	3
100	6
101	36
102	19
103	3
104	4
105	999
106	81
107	13
108	4
109	1
110	1
111	2
112	3
113	8
114	2
115	13
116	53
117	2
118	6
119	7
120	2
122	1
123	1
124	2
125	10
126	39
127	200
128	258
129	31
130	9
131	19
132	8
133	3
134	1
135	1
136	1
137	7
138	23
139	10
140	1
141	2
142	4
143	20
144	21
145	15
146	12
147	1
149	2
150	5
151	7
152	16
153	9
154	24
155	235
156	36
157	4
161	1
162	2
163	8
164	6
165	53
166	23
167	17
168	3
174	2
175	2
176	6
177	2
178	6
179	2
181	35
182	24
183	266
184	37
185	3
186	1
187	6
188	4
189	16
190	10
191	3
197	3
198	1
199	1
200	9
201	9
202	52
203	41
204	122
205	376
206	64
207	5
211	4
212	2
213	23
214	9
215	211
216	50
217	28
218	7
219	6
220	1
224	2
225	2
226	4
227	1
228	1
229	1
231	70
232	88
233	468
234	86
235	9
236	1
237	4
238	1
239	6
240	1
241	1
244	1
247	2
248	2
249	1
250	5
251	1
252	8
253	4
254	1
256	1
260	1
261	4
262	2
263	9
264	3
265	9
266	3
267	1
269	1
274	3
275	1
276	18
277	9
278	7
279	4
280	1
281	3
282	1
285	2
287	13
288	4
289	43
290	16
291	48
292	93
293	111
294	77
295	27
296	5
309	32
310	913
311	229
312	29
313	2
