Mass Spectrum: Nonacosane
Formula: C29H60
CAS: 630-03-5
Molecular weight: 408
m/z	intensity
26	1
27	28
28	9
29	107
30	3
33	1
39	17
40	4
41	226
42	65
43	660
44	23
51	1
52	1
53	9
54	24
55	237
56	126
57	999
58	46
59	1
63	1
65	2
66	3
67	28
68	32
69	165
70	112
71	718
72	42
77	1
79	3
80	2
81	13
82	40
83	145
84	83
85	527
86	36
87	2
91	1
93	1
94	1
95	9
96	26
97	118
98	65
99	214
100	16
101	1
107	1
109	4
110	13
111	64
112	61
113	159
114	14
123	2
124	9
125	38
126	56
127	128
128	13
129	1
137	2
138	7
139	21
140	49
141	108
142	14
143	1
151	1
152	5
153	13
154	44
155	92
156	12
157	1
166	5
167	9
168	42
169	83
170	11
171	1
180	3
181	7
182	37
183	77
184	11
185	1
194	2
195	6
196	33
197	67
198	10
208	2
209	4
210	27
211	58
212	10
213	1
222	2
223	3
224	25
225	53
226	9
227	1
236	1
237	2
238	21
239	48
240	9
241	1
250	1
251	2
252	22
253	46
254	9
255	1
264	1
265	1
266	18
267	41
268	9
269	1
279	1
280	15
281	39
282	10
283	2
294	14
295	36
296	9
297	1
308	11
309	35
310	9
311	1
322	9
323	31
324	8
325	1
336	9
337	28
338	7
339	2
350	6
351	22
352	7
353	1
364	4
365	12
366	4
378	2
379	9
380	2
407	1
408	46
409	15
410	3
