Mass Spectrum: Carbon monoxide
Formula: CO
CAS: 630-08-0
Molecular weight: 28
m/z	intensity
12	47
16	17
28	999
29	12
