Mass Spectrum: S-t-Butyl phenylthiothioacetate
Formula: C12H16OS2
CAS: 63006-70-2
Molecular weight: 240
m/z	intensity
41	499
45	327
46	39
47	40
49	30
50	39
51	109
52	29
53	29
55	59
56	40
57	999
58	90
59	99
60	19
61	20
62	9
63	19
65	119
66	30
69	59
70	19
71	29
75	30
76	29
77	188
78	90
79	80
82	30
83	29
84	19
89	20
91	59
97	19
108	39
109	139
110	120
121	39
122	20
123	568
124	170
125	59
126	39
141	60
142	30
184	380
185	59
186	60
240	140
241	40
