Mass Spectrum: Dodecanoic acid, cyclohexyl ester
Formula: C18H34O2
CAS: 6301-70-8
Molecular weight: 282
m/z	intensity
25	1
26	29
27	323
28	129
29	631
30	20
31	17
37	6
38	11
39	199
40	49
41	999
42	228
43	886
44	61
45	25
50	10
51	17
52	9
53	73
54	221
55	822
56	142
57	524
58	45
59	20
60	212
61	67
62	3
63	2
64	2
65	13
67	521
68	58
69	137
70	61
71	183
72	7
73	139
74	11
77	14
78	5
79	38
80	22
81	109
82	835
83	374
84	65
85	103
86	13
87	34
88	8
89	13
93	10
95	41
96	18
97	60
98	47
99	63
100	8
101	25
102	5
103	14
107	6
108	3
109	24
110	8
111	20
112	10
113	2
115	19
116	3
117	3
123	5
124	5
125	7
127	3
129	32
130	2
139	3
140	12
141	3
142	16
143	14
144	1
157	23
158	2
171	8
172	0
183	30
184	6
198	3
200	89
201	267
202	32
203	2
