Mass Spectrum: 3-Cyclohexyl-4a,5,8,8a-tetrahydrobenzo[d][1,2]oxazine-1,4-dione
Formula: C14H19NO3
CAS: 63013-26-3
Molecular weight: 249
m/z	intensity
26	11
27	125
28	66
29	97
30	43
31	4
34	2
36	5
37	2
38	7
39	161
40	32
41	434
42	148
43	79
44	32
45	13
46	21
47	11
50	16
51	54
52	42
53	89
54	161
55	463
56	81
57	29
58	3
59	7
60	8
61	3
62	10
63	6
64	3
65	33
66	24
67	195
68	109
69	114
70	27
71	12
72	18
73	6
74	8
75	5
76	7
77	206
78	120
79	999
80	258
81	162
82	124
83	256
84	24
85	7
86	5
87	5
91	8
92	4
93	14
94	29
95	51
96	48
97	68
98	79
99	11
100	2
104	11
105	27
106	16
107	305
108	39
109	8
110	6
111	6
112	22
113	3
114	8
115	8
116	3
119	3
120	5
121	16
122	66
123	47
124	57
125	42
126	27
127	13
128	3
129	4
132	11
133	3
134	3
135	7
136	5
137	7
138	36
139	234
140	75
141	11
142	15
143	10
144	2
147	2
148	4
149	99
150	34
151	7
152	87
153	24
154	3
155	3
162	7
163	2
164	8
165	3
166	4
167	420
168	755
169	76
170	10
171	3
176	4
177	3
178	11
179	2
190	4
204	18
205	12
206	6
220	8
221	11
232	34
233	7
248	5
249	800
250	139
251	20
252	3
