Mass Spectrum: 8-Nonene-2,4-diol, 8-methyl-, (R*,S*)-
Formula: C10H20O2
CAS: 63013-22-9
Molecular weight: 172
m/z	intensity
26	7
27	198
28	51
29	242
30	8
31	68
37	3
38	6
39	196
40	61
41	531
42	177
43	575
44	58
45	867
46	22
47	23
50	5
51	15
52	9
53	115
54	158
55	405
56	566
57	188
58	106
59	37
60	5
61	3
63	20
65	18
66	28
67	290
68	999
69	493
70	76
71	322
72	31
73	32
74	3
77	23
78	7
79	213
80	66
81	164
82	114
83	70
84	121
85	194
86	22
87	51
88	4
89	91
90	4
91	21
92	11
93	156
94	267
95	436
96	144
97	127
98	67
99	25
102	71
103	6
105	7
107	94
108	18
109	16
110	67
111	60
112	70
113	44
114	3
115	69
116	6
117	2
121	104
122	12
123	4
125	10
126	3
128	4
129	36
130	4
131	3
135	2
136	67
137	12
138	5
139	29
140	2
153	1
154	43
155	6
157	12
172	1
