Mass Spectrum: 4-(2-Pyrrol-1-yl-ethyl)pyridine
Formula: C11H12N2
CAS: 6302-13-2
Molecular weight: 172
m/z	intensity
41	121
44	89
50	49
51	307
52	119
53	677
54	58
65	120
67	58
77	178
78	206
79	109
80	999
81	219
92	59
93	48
104	50
105	110
106	119
144	50
169	49
171	119
172	975
173	158
