Mass Spectrum: 1-Phenyl-hexa-1,5-dione
Formula: C12H14O2
CAS: 6303-82-8
Molecular weight: 190
m/z	intensity
39	30
40	10
41	20
42	9
43	228
44	10
51	99
52	19
55	59
58	20
76	10
77	337
78	49
85	19
91	10
105	999
106	99
120	230
121	20
132	19
133	79
134	20
146	9
147	29
148	9
157	9
162	10
172	19
190	139
191	20
