Mass Spectrum: Senkyunolide
Formula: C12H16O2
CAS: 63038-10-8
Molecular weight: 192
m/z	intensity
15	1
26	3
27	38
28	8
29	45
30	1
37	1
38	3
39	46
40	5
41	49
42	4
43	11
44	1
45	1
49	1
50	19
51	58
52	28
53	30
54	2
55	12
56	1
57	65
58	3
62	3
63	12
64	2
65	15
66	3
67	4
68	1
74	4
75	4
76	9
77	256
78	100
79	216
85	86
86	5
87	1
89	4
90	3
91	40
92	4
93	11
94	1
95	1
102	2
103	10
104	5
105	44
106	24
107	999
115	7
116	2
117	4
118	2
121	2
122	9
123	1
127	1
128	2
129	1
130	1
132	1
133	15
134	2
135	42
136	16
145	2
149	2
150	2
163	17
164	6
165	1
192	137
193	18
194	1
