Mass Spectrum: 2-(2-(Dimethylamino)-ethyl)-pyridine
Formula: C9H14N2
CAS: 6304-27-4
Molecular weight: 150
m/z	intensity
15	11
18	1
26	4
27	15
29	11
30	42
37	1
38	6
39	36
40	6
41	13
42	114
43	23
44	19
45	2
49	1
50	16
51	44
52	29
53	13
54	7
55	2
56	16
57	17
58	999
59	44
62	2
63	8
64	6
65	32
66	10
67	3
70	2
71	1
72	1
74	2
75	3
76	3
77	13
78	48
79	28
80	8
90	1
91	3
92	17
93	28
94	32
95	2
104	12
105	4
106	121
107	15
108	1
117	2
118	7
119	5
120	1
131	1
132	1
133	10
134	1
135	8
149	2
150	25
151	3
