Mass Spectrum: 2-Propanone, 1-(4-pyridinyl)-
Formula: C8H9NO
CAS: 6304-16-1
Molecular weight: 135
m/z	intensity
43	860
51	86
52	60
54	46
63	66
64	80
65	216
66	80
67	50
78	30
91	283
92	999
93	166
135	160
