Mass Spectrum: 2,3-Butanedione, 1,4-dibromo-
Formula: C4H4Br2O2
CAS: 6305-43-7
Molecular weight: 242
m/z	intensity
14	29
25	7
26	27
27	11
29	24
36	2
37	18
38	10
39	6
40	7
41	88
42	999
43	47
49	7
50	14
51	2
53	23
54	3
77	2
79	312
80	25
81	311
82	23
91	69
92	87
93	694
94	93
95	610
96	3
105	4
106	1
107	7
109	3
120	23
121	565
122	36
123	552
124	8
149	5
151	5
158	6
160	16
162	6
242	23
244	53
246	23
