Mass Spectrum: 2-Propenoic acid, 3-(phenylsulfonyl)-, methyl ester
Formula: C10H10O4S
CAS: 63068-63-3
Molecular weight: 226
m/z	intensity
26	59
27	37
28	8
29	26
30	7
31	8
33	0
34	0
37	2
38	8
39	65
40	3
41	4
42	7
43	1
44	2
45	13
46	3
47	1
48	4
49	3
50	72
51	259
52	16
53	60
54	38
55	9
56	0
57	3
58	4
59	104
60	2
61	1
62	2
63	10
64	2
65	50
66	5
69	11
70	2
71	2
72	0
73	2
74	18
75	15
76	19
77	405
78	42
79	4
80	0
81	10
82	1
83	0
84	0
85	20
86	1
89	2
90	1
91	10
92	1
93	22
94	7
95	1
96	0
97	61
98	4
99	3
101	2
102	7
103	19
104	2
105	5
106	0
108	3
109	8
110	6
111	0
115	0
117	2
118	5
119	2
121	1
123	0
125	999
126	67
127	44
128	3
130	1
131	35
132	3
133	11
134	1
135	1
137	1
141	14
142	2
143	1
144	0
147	1
149	1
150	3
151	0
161	7
162	6
163	0
166	0
167	8
168	0
195	31
196	3
197	1
226	51
227	6
228	3
