Mass Spectrum: 4-OH-DIPT
Formula: C16H24N2O
CAS: 63065-90-7
Molecular weight: 260
m/z	intensity
41	37
42	16
43	54
44	10
50	2
51	5
52	2
53	2
54	2
55	4
56	32
57	6
58	6
62	3
63	12
64	5
65	14
66	2
68	2
70	18
72	225
73	12
74	2
75	4
76	4
77	13
78	7
79	2
84	4
86	10
87	2
89	23
90	17
91	22
92	4
98	4
99	2
100	6
101	6
102	8
103	10
104	7
105	4
112	2
114	999
115	110
116	14
117	40
118	32
119	3
123	5
128	5
129	4
130	32
131	10
132	5
133	7
140	3
141	2
142	3
143	2
144	3
145	20
146	126
147	28
148	5
156	2
157	4
158	11
159	33
160	46
161	5
172	2
173	2
174	5
175	2
202	3
217	2
229	2
243	2
260	81
261	15
262	2
