Mass Spectrum: 2-(4-Methyloctadecanoyl)imidazole
Formula: C22H40N2O
CAS: 63060-54-8
Molecular weight: 348
m/z	intensity
26	3
27	28
28	7
29	81
30	4
31	2
38	2
39	25
40	22
41	195
42	49
43	234
44	10
45	9
50	2
51	4
52	2
53	14
54	16
55	151
56	45
57	121
58	7
59	5
60	15
61	4
65	6
66	4
67	31
68	134
69	344
70	29
71	44
72	4
73	10
74	6
75	2
76	4
77	6
78	2
79	9
80	4
81	38
82	249
83	43
84	9
85	18
86	2
87	7
91	6
92	3
93	15
94	8
95	251
96	91
97	26
98	75
99	7
100	2
101	3
104	4
105	5
106	4
107	12
108	8
109	57
110	999
111	232
112	19
113	4
114	2
115	5
116	1
117	2
118	2
119	6
120	3
121	12
122	10
123	318
124	66
125	10
126	2
127	2
128	2
129	5
130	2
131	2
132	4
133	14
134	4
135	20
136	15
137	13
138	8
139	2
140	2
141	3
142	2
143	3
144	2
145	4
146	3
147	11
148	4
149	61
150	12
151	112
152	93
153	10
154	2
155	2
157	2
158	1
159	4
160	2
161	7
162	2
163	14
164	5
165	34
166	10
167	4
168	1
169	1
170	1
171	2
172	1
173	2
174	1
175	6
176	2
177	7
178	3
179	25
180	10
181	3
182	2
183	1
184	1
185	4
186	4
187	2
188	1
189	6
190	2
191	3
192	2
193	33
194	14
195	3
196	2
202	1
203	4
204	2
205	5
206	2
207	38
208	10
209	2
210	5
211	2
217	4
218	2
219	5
220	3
221	25
222	8
223	4
224	2
231	2
232	1
233	3
234	2
235	30
236	10
237	3
245	3
246	1
247	3
248	2
249	16
250	11
251	2
259	3
260	2
261	4
262	3
263	59
264	15
265	4
266	2
273	2
274	1
275	1
276	2
277	7
278	3
279	2
280	1
281	2
287	2
288	2
289	6
290	5
291	21
292	47
293	12
294	2
301	4
302	2
303	3
304	4
305	12
306	4
307	2
315	3
316	2
317	2
318	3
319	7
320	17
321	5
322	1
329	8
330	3
331	8
332	3
333	16
334	5
335	2
345	1
346	1
347	20
348	246
349	66
350	9
351	1
