Mass Spectrum: 1,2-Dichloro-4,5-dinitrobenzene
Formula: C6H2Cl2N2O4
CAS: 6306-39-4
Molecular weight: 236
m/z	intensity
17	28
18	118
28	22
29	17
30	999
31	18
32	11
36	25
37	54
38	27
44	11
46	39
47	19
49	34
50	39
51	26
52	20
53	12
60	31
61	97
62	124
63	60
64	29
65	14
71	15
72	65
73	118
74	298
75	75
76	34
83	26
84	86
85	39
86	53
87	50
88	73
89	16
90	13
94	14
96	28
97	286
98	70
99	104
100	32
101	21
102	11
107	55
108	65
109	225
110	129
111	80
112	45
113	32
114	3
118	3
120	18
122	17
124	10
125	16
131	20
132	92
133	68
134	64
135	40
136	18
137	32
144	80
145	8
146	59
148	40
150	17
160	184
161	13
162	167
163	13
164	69
165	18
176	30
178	19
190	103
192	69
194	9
206	42
207	5
208	25
236	140
237	7
238	93
240	15
