Mass Spectrum: Perfluoro-(2,5-dimethyl-3,6-dioxa-nonanoyl chloride)
Formula: C9ClF17O3
CAS: 63069-29-4
Molecular weight: 514
m/z	intensity
31	172
47	91
63	389
65	131
69	999
85	352
87	121
97	150
100	289
119	311
131	40
135	443
137	149
147	151
150	139
169	733
170	50
185	259
187	90
329	70
335	431
336	50
