Mass Spectrum: Octadecanoic acid, 4-methyl-
Formula: C19H38O2
CAS: 63060-52-6
Molecular weight: 298
m/z	intensity
26	4
27	64
28	30
29	192
30	9
31	10
39	38
40	9
41	375
42	79
43	644
44	294
45	185
46	27
47	2
51	1
52	2
53	22
54	28
55	458
56	193
57	799
58	37
59	49
60	292
61	51
62	2
65	5
66	3
67	56
68	41
69	337
70	85
71	581
72	32
73	999
74	81
75	7
76	1
77	6
79	15
80	7
81	83
82	44
83	245
84	52
85	454
86	29
87	37
88	3
91	8
92	3
93	20
94	10
95	57
96	32
97	135
98	42
99	203
100	20
101	192
102	17
103	2
104	2
105	9
106	2
107	15
108	8
109	34
110	18
111	72
112	40
113	157
114	19
115	26
116	7
117	3
119	10
120	4
121	18
122	6
123	27
124	13
125	39
126	11
127	134
128	13
129	41
130	9
131	4
133	8
134	3
135	17
136	10
137	21
138	9
139	20
140	7
141	117
142	12
143	43
144	6
145	6
146	1
147	6
148	2
149	52
150	6
151	8
152	7
153	13
154	6
155	109
156	13
157	15
158	2
159	4
160	2
161	27
162	5
163	8
164	2
165	6
166	5
167	12
168	5
169	90
170	12
171	14
172	7
173	3
175	5
177	6
178	2
179	5
180	9
181	6
182	8
183	68
184	9
185	29
186	9
187	4
188	2
189	4
190	1
191	6
192	3
193	4
194	4
195	8
196	5
197	28
198	4
199	23
200	5
201	2
202	1
203	2
204	0
205	4
206	1
207	2
208	3
209	3
210	8
211	9
212	1
213	21
214	4
215	1
216	3
217	2
218	2
219	0
220	3
221	2
222	8
223	3
224	4
226	10
227	7
228	3
229	1
230	2
231	1
233	1
234	1
235	2
236	28
237	8
238	18
239	405
240	75
241	581
242	106
243	13
247	1
249	1
250	2
251	3
252	1
253	1
254	1
255	6
256	18
257	6
261	2
262	11
263	3
264	2
265	7
266	1
267	1
269	45
270	15
271	2
273	1
275	1
278	1
279	6
280	7
281	7
282	1
283	4
284	5
285	2
297	2
298	379
299	86
300	10
301	1
