Mass Spectrum: Dodecanoic acid, 2-phenylethyl ester
Formula: C20H32O2
CAS: 6309-54-2
Molecular weight: 304
m/z	intensity
25	0
26	1
27	17
28	3
29	41
30	1
31	0
38	1
39	14
40	2
41	84
42	21
43	112
44	4
45	1
50	2
51	10
52	3
53	5
54	4
55	67
56	14
57	77
58	3
59	0
60	3
61	1
62	0
63	3
64	1
65	11
66	1
67	9
68	4
69	19
70	5
71	27
72	1
73	2
74	0
75	0
76	1
77	32
78	17
79	31
80	3
81	6
82	1
83	12
84	4
85	14
86	1
87	0
88	0
89	3
90	1
91	33
92	7
93	2
94	0
95	6
96	1
97	6
98	3
99	1
100	0
101	0
102	2
104	999
105	369
106	25
107	1
109	3
110	0
111	1
112	0
115	0
117	0
118	0
119	0
120	0
121	1
122	1
123	1
125	1
126	0
129	0
133	0
134	0
147	0
149	0
157	0
164	1
165	0
176	0
177	0
179	0
183	9
184	1
191	0
192	1
207	0
208	1
209	0
210	0
251	0
265	0
281	0
282	0
283	0
