Mass Spectrum: 2-(2-Pyrrolidin-1-yl-ethyl)-pyridine
Formula: C11H16N2
CAS: 6311-90-6
Molecular weight: 176
m/z	intensity
42	168
43	90
55	90
58	69
70	59
78	50
79	69
84	999
85	60
93	60
105	50
106	90
