Mass Spectrum: 2-(2-Pyrrol-1-yl-ethyl)pyridine
Formula: C11H12N2
CAS: 6311-84-8
Molecular weight: 172
m/z	intensity
41	151
43	160
44	69
50	79
51	270
52	158
53	379
63	50
65	109
67	158
76	50
77	120
78	238
79	239
80	999
81	131
92	89
93	447
94	130
104	59
105	200
106	511
107	50
118	80
130	60
144	70
169	80
171	230
172	450
173	69
