Mass Spectrum: Benzenesulfono-p-toluidide
Formula: C13H13NO2S
CAS: 6311-65-5
Molecular weight: 247
m/z	intensity
26	1
27	11
28	1
32	1
34	1
37	2
38	5
39	22
40	2
41	4
42	1
44	1
45	2
48	8
49	1
50	23
51	73
52	30
53	20
54	4
55	1
57	1
59	1
61	1
62	3
63	9
64	22
65	14
66	11
67	2
69	3
71	1
73	1
74	6
75	5
76	9
77	230
78	112
79	163
80	13
81	2
82	1
83	1
84	3
89	3
90	3
91	12
92	3
93	2
94	2
97	3
102	1
103	2
104	20
105	23
106	999
107	119
108	6
109	9
110	28
111	3
112	1
115	2
116	1
117	1
125	12
126	2
127	1
128	2
129	1
138	2
139	1
140	1
141	9
142	1
143	1
152	2
153	4
154	1
155	2
156	3
165	1
166	2
167	10
168	12
169	2
179	1
180	7
181	5
182	28
183	13
184	2
215	1
245	1
246	3
247	406
248	61
249	23
250	3
