Mass Spectrum: (1R,2'S)-[1,1'-[Bicyclopentyl]-2,2'-diol
Formula: C10H18O2
CAS: 63122-14-5
Molecular weight: 170
m/z	intensity
26	5
27	205
28	32
29	207
30	15
31	100
33	0
35	1
36	0
38	3
39	164
40	36
41	430
42	54
43	103
44	58
45	17
46	1
47	7
48	2
49	0
50	2
51	19
52	13
53	101
54	87
55	235
56	32
57	208
58	21
59	3
60	0
62	1
63	1
64	6
65	37
66	75
67	622
68	121
69	54
70	199
71	50
72	3
73	8
74	0
75	0
76	1
77	41
78	32
79	240
80	213
81	214
82	68
83	134
84	999
85	139
86	10
89	0
90	1
91	85
92	107
93	375
94	57
95	217
96	59
97	62
98	19
99	2
102	25
103	4
104	2
105	52
106	52
107	25
108	684
109	101
110	62
111	147
112	13
113	1
115	1
116	0
117	2
118	0
119	72
120	12
121	46
122	4
123	64
124	30
125	4
126	0
127	0
133	8
134	125
135	19
136	2
137	2
138	2
141	0
151	11
152	68
153	13
154	1
165	0
169	0
170	17
171	3
172	0
