Mass Spectrum: 2-(2-Dipropylaminoethyl)-pyridine
Formula: C13H22N2
CAS: 6312-16-9
Molecular weight: 206
m/z	intensity
41	111
42	100
43	151
51	49
58	50
70	50
72	201
78	80
79	69
84	99
86	191
93	59
94	69
105	70
106	249
107	49
114	999
115	99
177	159
