Mass Spectrum: Benzene, (2,2-diethoxyethyl)-
Formula: C12H18O2
CAS: 6314-97-2
Molecular weight: 194
m/z	intensity
26	4
27	42
28	1
29	103
30	2
31	7
37	0
38	2
39	26
40	7
41	10
42	0
43	11
44	4
45	12
46	0
47	588
48	7
49	2
50	5
51	19
52	4
53	2
55	0
57	0
59	0
60	0
61	0
62	2
63	13
64	3
65	65
66	4
67	0
72	1
73	1
74	1
75	600
76	18
77	41
78	11
79	26
80	2
81	0
86	0
87	0
89	11
90	6
91	249
92	41
93	11
94	1
101	0
102	4
103	999
104	66
105	13
106	0
107	1
115	0
116	1
117	0
118	0
119	9
120	11
121	229
122	18
123	0
129	1
130	0
131	42
132	4
133	0
137	0
147	0
148	5
149	159
150	17
151	1
164	0
165	0
193	0
194	0
