Mass Spectrum: Oleanan-29-oic acid, 3-(acetyloxy)-12,13-epoxy-11-oxo-, methyl ester, (3.beta.,12.beta.,20.beta.)-
Formula: C33H50O6
CAS: 63166-97-2
Molecular weight: 542
m/z	intensity
26	4
27	33
28	22
29	88
30	5
31	9
33	3
38	3
39	34
40	10
41	290
42	29
43	999
44	37
45	29
46	2
51	8
52	4
53	65
54	20
55	295
56	33
57	94
58	8
59	56
60	17
61	11
63	6
64	4
65	29
66	14
67	155
68	39
69	337
70	37
71	75
72	14
73	26
74	10
75	9
76	7
77	71
78	17
79	128
80	33
81	260
82	172
83	117
84	22
85	42
86	8
87	11
88	9
89	5
91	134
92	34
93	212
94	65
95	377
96	113
97	94
98	22
99	21
100	6
101	20
102	7
103	14
104	13
105	219
106	55
107	238
108	93
109	226
110	50
111	57
112	18
113	15
114	8
115	17
116	12
117	31
118	16
119	212
120	133
121	306
122	94
123	138
124	36
125	42
126	8
127	16
128	12
129	20
130	14
131	50
132	20
133	148
134	76
135	202
136	62
137	64
138	18
139	27
140	6
141	11
142	10
143	21
144	14
145	60
146	29
147	225
148	69
149	113
150	29
151	36
152	10
153	19
154	7
155	15
156	11
157	27
158	14
159	79
160	27
161	98
162	37
163	52
164	18
165	20
166	8
167	13
168	6
169	12
170	7
171	26
172	15
173	71
174	80
175	656
176	138
177	57
178	14
179	17
180	9
181	16
182	7
183	10
184	7
185	23
186	15
187	69
188	30
189	126
190	297
191	160
192	123
193	32
194	8
195	12
196	7
197	15
199	17
201	26
202	22
203	110
204	96
205	673
206	147
207	30
209	17
210	11
211	13
212	28
214	12
215	32
216	12
217	36
218	22
219	26
220	12
221	11
223	8
225	8
227	9
229	14
230	20
231	69
232	33
233	37
235	140
237	16
239	6
240	8
243	9
245	11
247	11
248	12
249	21
250	25
251	36
252	82
253	20
255	9
257	10
259	8
261	18
263	416
264	124
265	636
266	135
267	22
269	8
271	9
273	10
275	10
276	37
277	396
278	95
279	18
281	6
283	6
285	7
287	9
290	10
291	26
292	19
293	8
294	5
298	11
301	6
302	6
304	14
306	8
308	14
313	5
315	11
317	26
318	9
319	5
329	6
331	10
333	16
339	5
341	6
345	12
346	50
347	29
348	12
359	46
361	16
362	7
370	4
374	4
380	6
390	3
393	4
407	8
411	5
421	6
422	5
423	12
429	5
439	13
440	5
449	7
453	22
454	12
455	4
464	7
465	23
466	12
467	29
468	10
469	3
481	6
483	71
484	25
485	13
499	9
500	3
513	27
514	14
515	4
524	10
525	6
526	21
528	6
542	715
543	296
544	81
546	13
