Mass Spectrum: .beta.-D-Glucopyranose, 2-O-(3-O-acetyl-6-deoxy-.beta.-D-glucopyranosyl)-6-deoxy-, 3-acetate 1-(decahydro-5''-methyl-4''-((1-oxo-3-phenyl-2- propenyl)oxy)dispiro(oxirane-2,3'(2'H)-benzofuran-2',2''- (2H)pyran)-6'-carboxylate) (2'S-(2'.alpha.(4''R*
Formula: C40H52O17
CAS: 63166-73-4
Molecular weight: 804
m/z	intensity
41	113
42	10
43	999
44	23
45	117
47	8
49	51
51	52
53	19
55	175
56	35
57	144
58	58
59	8
60	110
61	28
67	67
68	43
69	325
70	9
71	215
73	103
77	88
79	79
80	27
81	108
82	77
83	298
84	31
85	241
86	22
87	38
91	47
93	42
95	91
97	96
99	63
100	62
101	36
102	69
103	164
104	24
105	35
107	40
109	32
111	228
112	33
113	290
114	22
115	33
119	42
121	21
123	21
125	17
127	20
128	38
129	400
131	673
132	56
133	9
135	8
137	9
139	68
145	10
147	88
148	104
149	41
150	16
153	9
157	320
158	9
159	9
171	263
172	12
175	9
187	20
189	364
190	22
205	20
217	631
219	223
221	8
231	55
233	21
235	24
239	9
251	10
263	209
264	79
279	102
280	19
281	508
282	79
377	8
411	19
414	28
428	8
429	9
502	21
