Mass Spectrum: Pyridine, 1-(chloroacetyl)-1,2,3,6-tetrahydro-
Formula: C7H10ClNO
CAS: 63177-40-2
Molecular weight: 159
m/z	intensity
41	38
42	257
43	63
44	46
45	13
46	2
47	2
48	8
49	90
50	45
51	57
52	42
53	77
54	337
55	113
56	71
57	10
58	9
59	10
60	5
61	1
62	1
63	4
64	3
65	15
66	8
67	102
68	126
69	46
70	52
71	12
72	6
73	4
74	2
75	4
76	11
77	86
78	19
79	57
80	103
81	46
82	289
83	134
84	21
85	3
86	14
87	2
88	12
89	3
90	4
91	4
92	5
93	10
94	14
95	42
96	70
97	58
98	26
99	11
100	4
101	2
102	5
103	3
104	4
105	3
106	32
107	10
108	13
109	8
110	56
111	7
112	12
113	3
114	12
115	5
116	8
117	5
118	5
119	4
120	8
121	5
122	28
123	8
124	999
125	79
126	27
127	4
128	3
129	3
130	5
131	4
132	5
133	5
134	6
141	9
142	5
143	4
144	12
145	5
146	7
147	3
156	10
157	8
158	22
159	144
160	33
161	53
162	13
163	3
