Mass Spectrum: Diethyl 4-oxopimelate
Formula: C11H18O5
CAS: 6317-49-3
Molecular weight: 230
m/z	intensity
26	8
27	58
28	20
29	127
30	6
31	14
36	7
38	4
39	11
40	4
41	15
42	37
43	59
44	58
45	42
46	4
49	4
50	5
53	10
54	8
55	211
56	112
57	45
58	7
59	6
60	9
61	4
64	7
65	8
66	4
67	12
68	6
69	10
70	55
71	10
72	5
73	138
74	36
75	13
76	5
77	9
79	7
81	6
82	8
83	47
84	13
85	9
86	4
87	5
88	5
91	20
92	11
93	8
94	6
95	9
96	11
97	13
98	19
99	9
100	11
101	999
102	66
103	15
104	5
105	4
106	4
107	5
109	7
110	14
111	460
112	81
113	10
115	6
121	12
122	4
123	7
124	9
128	18
129	792
130	77
131	11
133	5
134	6
138	16
139	42
140	7
141	7
155	7
156	15
157	220
158	26
159	5
171	5
175	5
184	15
185	266
186	33
187	8
230	4
