Mass Spectrum: 3,5,8a-Trimethyl-4,6,8a,9-tetrahydronaphtho[2,3-b]furan
Formula: C15H18O
CAS: 631868-96-7
Molecular weight: 214
m/z	intensity
27	6
28	1
29	3
38	2
39	26
40	7
41	13
42	1
43	6
50	4
51	19
52	12
53	16
54	3
55	3
57	1
62	3
63	13
64	6
65	27
66	10
67	2
68	1
69	2
70	2
71	2
74	2
75	3
76	7
77	66
78	16
79	141
80	21
81	2
82	3
83	3
84	3
85	1
86	1
87	1
88	1
89	6
90	2
91	46
92	6
93	2
95	1
97	2
98	3
99	2
101	1
102	4
103	10
104	3
105	16
106	11
107	13
108	999
109	79
110	5
113	1
114	1
115	26
116	5
117	6
118	3
119	4
126	2
127	8
128	22
129	10
130	2
131	3
132	1
133	1
139	4
140	1
141	14
142	6
143	4
144	1
145	3
146	1
148	2
150	1
151	2
152	10
153	11
154	5
155	7
156	3
157	2
159	1
164	1
165	6
166	2
167	2
168	1
169	3
170	2
171	1
178	1
179	1
180	1
181	2
183	2
185	1
199	2
214	8
215	1
