Mass Spectrum: Benzenesulfonamide, N-methyl-4-nitro-
Formula: C7H8N2O4S
CAS: 6319-45-5
Molecular weight: 216
m/z	intensity
26	5
27	21
28	140
29	40
30	999
31	26
37	11
38	39
39	71
40	7
41	33
42	14
43	15
44	4
45	17
46	12
47	2
48	6
49	9
50	424
51	100
52	25
53	19
54	6
55	23
56	17
57	20
58	6
59	0
60	38
61	12
62	54
63	111
64	118
65	77
66	12
67	17
68	11
69	22
70	21
71	8
72	2
73	17
74	144
75	528
76	409
77	272
78	119
79	23
80	9
81	11
82	9
83	10
84	9
85	5
86	2
87	2
88	3
89	3
90	12
91	21
92	269
93	36
94	54
95	21
96	15
97	7
98	2
99	2
100	1
101	1
102	1
103	1
104	18
105	31
106	34
107	9
108	13
109	19
110	2
111	3
112	4
115	6
116	5
117	1
119	1
120	2
121	6
122	704
123	89
124	15
125	3
135	6
136	8
137	2
138	2
139	29
140	12
141	41
142	4
143	2
151	6
152	218
153	18
154	2
156	14
157	1
165	3
166	0
167	1
168	1
169	1
170	21
171	4
172	2
178	1
181	2
186	202
187	41
188	26
189	3
200	3
215	27
216	325
217	36
218	19
219	2
