Mass Spectrum: .alpha.-Ergostenol
Formula: C28H48O
CAS: 632-32-6
Molecular weight: 400
m/z	intensity
41	282
43	999
44	28
45	27
49	13
51	8
53	47
55	315
57	186
59	47
65	12
67	114
69	193
70	9
71	164
73	8
77	48
79	155
81	179
83	111
84	13
85	53
86	6
87	14
91	145
93	149
95	180
96	32
97	102
98	9
99	27
103	14
105	180
107	289
108	48
109	94
110	6
111	43
113	17
115	28
117	63
118	5
119	105
120	34
121	97
122	39
123	78
124	33
125	31
126	6
127	14
128	15
129	31
130	14
131	82
132	24
133	122
134	52
135	103
136	27
137	33
138	10
139	11
141	30
142	9
143	45
145	85
146	15
147	131
148	7
149	75
150	17
151	34
153	20
154	6
155	15
157	45
159	83
160	8
161	103
162	26
163	27
164	9
165	17
166	11
167	14
168	7
169	16
171	34
172	10
173	40
174	13
175	33
176	7
177	26
178	10
179	14
180	6
181	9
182	5
183	12
185	31
186	10
187	31
188	9
189	19
190	5
191	16
192	5
193	10
194	6
195	12
196	5
197	15
198	5
199	21
200	9
201	27
202	4
203	18
205	13
207	10
208	4
209	8
211	16
213	84
214	17
215	26
216	5
217	19
218	18
219	15
220	9
221	8
222	5
223	12
224	5
225	8
227	19
228	17
229	90
230	21
231	59
232	28
233	20
234	9
235	9
237	9
238	5
239	12
240	5
241	13
242	6
243	9
244	7
245	15
246	38
247	29
248	24
249	15
250	21
251	12
253	10
255	46
256	13
257	20
258	11
259	27
260	18
261	18
262	14
263	7
264	8
265	5
267	10
269	31
270	11
271	35
272	18
273	97
274	40
275	18
276	11
277	7
278	6
283	9
284	4
285	19
286	10
287	25
288	8
289	8
291	6
297	8
299	10
300	5
301	5
302	4
303	15
304	6
305	7
313	6
314	4
315	6
316	5
317	6
318	6
319	5
327	7
329	5
330	4
331	4
341	5
343	6
357	4
365	6
367	19
368	6
381	0
382	0
383	31
385	141
386	34
387	7
395	4
396	10
397	10
398	43
399	33
400	470
401	156
402	26
