Mass Spectrum: D-Threonine
Formula: C4H9NO3
CAS: 632-20-2
Molecular weight: 119
m/z	intensity
12	9
13	16
14	58
15	164
16	21
17	42
18	149
19	10
24	3
25	9
26	55
27	184
28	729
29	769
30	379
31	21
37	3
38	8
39	21
40	15
41	34
42	72
43	173
44	209
45	283
46	41
47	4
50	1
51	4
52	9
53	6
54	32
55	21
56	205
57	999
58	102
59	22
60	26
61	1
67	2
68	4
69	6
70	2
71	1
72	15
73	4
74	257
75	881
76	28
77	5
80	2
82	2
83	4
84	4
85	1
86	2
87	2
101	12
102	1
104	24
105	1
120	2
