Mass Spectrum: Carbamic acid, phenyl-, 4-nitrophenyl ester
Formula: C13H10N2O4
CAS: 6320-72-5
Molecular weight: 258
m/z	intensity
33	6
34	0
35	1
37	51
39	322
41	26
42	4
43	3
44	2
46	13
48	3
49	15
50	60
51	70
52	44
53	44
54	8
55	5
56	0
58	0
60	8
61	32
63	244
64	224
65	262
67	16
68	1
69	0
72	1
73	4
74	23
75	24
77	122
79	10
81	118
82	5
86	1
87	2
88	4
91	329
92	101
93	92
94	6
96	0
104	0
105	1
106	3
109	305
111	7
114	0
115	4
119	999
120	86
121	8
122	7
123	24
125	2
126	1
127	1
129	1
130	0
132	0
133	1
135	8
137	16
139	160
140	12
141	1
147	0
150	0
152	0
153	3
155	1
156	0
164	0
166	1
168	1
182	0
183	0
209	0
212	32
213	4
254	0
255	1
256	2
257	4
258	59
259	7
260	0
