Mass Spectrum: Ethanole, 2-[(2-chloroethyl)thio]-, acetate
Formula: C6H11ClO2S
CAS: 6321-47-7
Molecular weight: 182
m/z	intensity
25	18
26	120
27	264
29	46
30	14
31	6
35	6
36	9
39	7
41	9
42	51
43	999
44	89
45	190
46	64
47	51
48	8
49	13
57	17
58	64
59	125
60	693
61	88
62	48
63	110
64	7
65	33
73	257
74	14
75	13
77	18
85	16
86	32
87	59
94	16
95	8
96	6
109	51
110	5
111	15
122	316
123	29
124	113
125	10
