Mass Spectrum: 2-Hexanone, 3-hydroxy-3,5-dimethyl-
Formula: C8H16O2
CAS: 6321-14-8
Molecular weight: 144
m/z	intensity
41	148
42	19
43	287
45	59
55	19
57	168
58	19
59	999
60	39
69	39
83	29
87	29
101	118
111	9
