Mass Spectrum: 4-Methylcyclohexylamine
Formula: C7H15N
CAS: 6321-23-9
Molecular weight: 113
m/z	intensity
15	3
26	1
27	19
28	39
29	19
30	49
38	1
39	24
40	3
41	50
42	34
43	203
44	11
45	1
50	1
51	3
52	2
53	10
54	13
55	26
56	999
57	58
58	2
65	3
66	1
67	19
68	8
69	8
70	10
77	4
79	3
80	3
81	27
82	6
83	1
84	22
85	1
91	1
93	3
94	1
95	17
96	10
97	1
98	2
106	1
112	11
113	110
114	14
