Mass Spectrum: 1,1'-Methylene-bis(di-2-propenylamine)
Formula: C13H22N2
CAS: 6321-38-6
Molecular weight: 206
m/z	intensity
28	41
30	9
32	8
39	17
40	11
41	215
42	46
43	11
44	66
55	150
56	19
68	9
69	9
70	57
73	39
79	9
81	23
82	31
96	19
97	21
98	5
109	19
110	999
111	69
112	6
137	13
165	7
205	1
