Mass Spectrum: 2,5-Octadiene
Formula: C8H14
CAS: 63216-69-3
Molecular weight: 110
m/z	intensity
25	3
26	76
27	752
28	88
29	417
30	7
31	0
32	8
35	0
36	0
37	27
38	82
39	999
40	171
41	994
42	100
43	328
44	6
45	3
46	1
47	1
48	1
49	7
50	89
51	174
52	75
53	555
54	119
55	412
56	26
57	1
58	1
59	0
60	2
61	6
62	18
63	43
64	7
65	129
66	72
67	750
68	706
69	58
70	1
71	2
72	0
73	5
74	8
75	4
76	2
77	109
78	20
79	255
80	44
81	704
82	40
83	1
84	1
85	18
86	3
87	14
88	0
89	0
91	22
92	1
93	22
94	26
95	103
96	5
97	5
98	2
99	5
100	0
101	0
102	1
103	7
104	0
105	1
106	0
107	12
108	2
109	38
110	136
111	8
