Mass Spectrum: D-Gulonic acid .gamma.-lactone
Formula: C6H10O6
CAS: 6322-07-2
Molecular weight: 178
m/z	intensity
14	9
15	90
16	2
17	9
18	35
19	22
25	1
26	12
27	67
28	51
29	168
30	45
31	218
32	11
33	1
37	1
38	4
39	34
40	8
41	50
42	103
43	342
44	165
45	124
46	4
47	12
49	2
50	1
51	2
52	1
53	6
54	32
55	77
56	62
57	161
58	74
59	27
60	296
61	607
62	20
63	3
67	2
68	6
69	53
70	46
71	408
72	345
73	999
74	97
75	11
76	69
77	3
79	7
80	1
81	3
82	2
83	56
84	12
85	270
86	68
87	28
88	6
89	71
90	22
91	59
92	2
95	1
96	2
97	19
98	12
99	4
100	446
101	85
102	14
103	137
104	9
105	2
111	1
112	2
113	6
114	99
115	10
116	6
117	2
118	21
119	152
120	9
121	5
123	1
125	1
129	2
131	3
132	27
133	16
134	1
142	66
143	5
147	142
148	8
149	6
151	2
160	110
161	10
162	2
179	20
180	1
