Mass Spectrum: Benzenesulfonamide, 4-nitro-
Formula: C6H6N2O4S
CAS: 6325-93-5
Molecular weight: 202
m/z	intensity
15	2
16	10
18	2
25	1
26	8
27	16
28	32
29	8
30	169
31	2
32	9
33	1
36	1
37	27
38	70
39	126
40	9
41	11
42	6
43	4
44	9
45	24
46	26
47	8
48	36
49	14
50	606
51	116
52	43
53	39
54	11
55	9
56	1
57	6
58	9
59	2
60	2
61	20
62	50
63	169
64	306
65	206
66	36
67	5
68	3
69	36
70	24
71	4
72	3
73	32
74	236
75	999
76	530
77	66
78	9
79	17
80	57
81	45
82	15
83	9
84	6
85	2
86	6
87	3
88	4
89	3
90	32
91	29
92	333
93	48
94	5
95	18
96	15
97	3
98	2
99	1
103	1
104	2
105	4
106	15
107	20
108	150
109	130
110	13
111	5
112	4
113	1
115	1
117	1
120	1
121	37
122	542
123	51
124	12
125	3
126	1
127	1
135	1
137	1
138	619
139	400
140	37
141	9
142	1
154	2
155	4
156	158
157	13
158	8
169	2
170	7
171	2
172	3
184	1
185	2
186	352
187	31
188	19
189	2
202	872
203	73
204	51
205	3
