Mass Spectrum: Benzenesulfonamide, 3,4-dimethyl-
Formula: C8H11NO2S
CAS: 6326-18-7
Molecular weight: 185
m/z	intensity
25	67
26	256
27	544
28	128
29	184
30	14
31	28
32	28
33	3
34	3
35	17
36	99
37	117
38	170
39	455
40	78
41	220
44	92
45	92
46	21
47	7
48	32
49	10
50	88
51	217
52	71
53	117
54	14
55	21
56	7
57	32
58	7
59	4
60	17
61	14
62	42
63	135
64	78
65	99
66	21
67	10
68	3
69	14
70	7
71	7
72	3
73	7
74	28
75	35
76	32
77	423
78	138
79	277
80	53
81	10
82	7
83	3
84	3
85	7
86	7
87	10
88	3
89	39
90	17
92	14
93	24
94	10
95	7
96	3
97	3
98	7
99	3
101	10
102	32
103	156
104	78
105	999
106	170
107	53
108	7
109	3
110	3
115	3
117	3
118	3
119	10
120	67
121	138
122	81
123	10
124	3
125	3
133	3
134	3
135	3
136	3
137	3
138	10
139	3
140	3
152	3
153	14
154	3
167	3
168	3
169	220
170	21
171	14
172	3
183	3
184	3
185	437
186	46
187	24
