Mass Spectrum: Acetic acid, 2,2'-[carbonothioylbis(thio)]bis-
Formula: C5H6O4S3
CAS: 6326-83-6
Molecular weight: 226
m/z	intensity
12	18
13	28
14	121
15	22
17	4
18	4
28	127
29	69
31	181
32	212
33	39
34	31
36	2
41	27
42	212
43	45
44	205
45	758
46	937
47	999
48	87
49	45
57	3
58	4
59	312
60	313
61	21
62	7
63	77
64	84
74	426
75	35
76	240
77	27
78	57
79	38
80	21
91	20
92	63
93	318
94	66
106	3
107	344
108	19
109	29
134	168
135	492
136	36
137	44
148	3
153	8
167	20
226	168
227	4
228	22
