Mass Spectrum: 3-Cyclohexene-1-methanol, 6-hydroxy-, cis-
Formula: C7H12O2
CAS: 63262-58-8
Molecular weight: 128
m/z	intensity
26	35
27	223
28	21
29	165
30	13
31	230
37	14
38	42
39	340
40	53
41	337
42	39
43	123
44	36
45	38
46	9
47	9
49	7
50	50
51	102
52	49
53	171
54	297
55	266
56	355
57	127
58	10
61	6
62	9
63	28
64	6
65	59
66	96
67	211
68	48
69	54
70	35
71	12
73	97
74	346
75	30
76	8
77	215
78	307
79	999
80	163
81	213
82	67
83	36
84	8
91	92
92	388
93	83
94	16
95	161
96	20
97	25
98	10
99	39
100	24
109	35
110	338
111	27
