Mass Spectrum: Benzeneacetamide, N-(4-chlorophenyl)-N-4-piperidinyl-
Formula: C19H21ClN2O
CAS: 63260-75-3
Molecular weight: 328
m/z	intensity
41	5
42	105
43	7
44	23
45	1
49	3
50	5
51	7
52	5
53	32
54	42
55	184
56	293
57	142
59	3
61	3
63	14
64	9
65	92
67	23
68	249
69	19
70	6
71	2
72	1
75	29
76	2
80	21
81	24
82	521
83	999
84	357
85	22
89	31
90	26
91	476
92	74
93	6
95	2
99	2
101	2
103	3
105	1
111	40
113	3
116	1
117	10
118	19
119	3
125	14
127	116
128	15
129	40
130	24
136	14
138	11
140	5
141	1
152	19
153	20
154	78
155	9
156	37
164	2
166	22
167	19
168	4
169	4
176	14
178	7
180	26
183	5
189	21
192	14
193	309
194	47
195	99
196	17
203	9
209	160
210	30
211	51
228	1
237	4
246	78
247	17
248	18
288	1
328	2
