Mass Spectrum: Normethadol(.alpha.)
Formula: C20H27NO
CAS: 6327-73-7
Molecular weight: 297
m/z	intensity
57	76
58	999
71	32
72	38
77	43
84	34
91	114
99	65
103	21
105	38
115	71
117	13
129	27
130	34
134	79
147	11
152	15
165	56
166	11
167	13
178	47
179	37
180	30
191	17
193	44
194	8
205	8
207	12
208	16
219	8
220	6
222	22
237	6
239	20
248	5
250	23
251	6
262	3
264	7
276	5
277	5
297	3
