Mass Spectrum: Silane, (diphenylmethyl)trimethyl-
Formula: C16H20Si
CAS: 6328-61-6
Molecular weight: 240
m/z	intensity
26	0
27	1
28	0
29	3
31	2
38	0
39	7
41	0
42	1
43	22
44	7
45	58
46	3
47	1
50	1
51	5
52	1
53	3
55	2
56	0
57	3
58	5
59	6
60	0
61	0
62	1
63	5
64	1
65	4
66	0
67	1
69	0
70	1
71	1
72	6
73	999
74	52
75	21
76	2
77	3
78	0
79	1
81	0
82	0
83	1
86	0
87	0
88	0
89	3
90	0
91	2
92	0
93	0
95	1
99	0
101	0
102	1
103	1
104	0
105	6
106	0
107	2
108	0
109	0
113	1
114	0
115	5
116	0
117	0
119	1
120	0
121	27
122	3
123	1
126	0
127	1
128	2
129	1
130	0
131	1
132	0
133	0
135	4
136	0
137	0
138	0
139	3
140	0
141	1
143	0
145	1
146	0
147	0
148	0
150	0
151	1
152	11
153	2
154	0
155	0
161	0
162	0
163	2
164	3
165	30
166	10
167	14
168	1
169	0
176	0
177	0
178	1
179	1
181	1
182	0
183	0
191	0
192	0
193	0
194	0
195	1
196	0
197	8
198	1
205	0
208	0
209	1
210	0
224	0
225	13
226	2
227	0
240	56
241	13
242	2
243	0
