Mass Spectrum: Ethyl propionate, 2,2'-dithiobis-
Formula: C10H18O4S2
CAS: 6328-50-3
Molecular weight: 266
m/z	intensity
41	41
43	170
45	659
47	64
49	12
50	1
51	2
53	8
55	690
56	251
57	238
59	760
60	367
61	271
62	30
64	236
65	36
66	215
68	25
69	2
70	1
71	3
73	687
74	999
75	103
77	83
78	36
79	14
81	28
82	3
83	9
84	18
85	3
86	22
87	24
88	110
89	36
92	447
93	636
94	204
95	65
96	15
97	3
99	6
101	777
102	920
103	78
105	86
106	20
107	13
109	35
110	4
111	5
113	1
115	5
116	2
117	2
120	908
121	505
122	109
123	53
124	6
125	5
127	1
129	184
130	334
131	25
133	230
134	211
135	93
136	15
137	36
138	20
139	8
140	1
141	1
144	1
147	8
148	2
149	4
150	1
151	9
152	2
153	2
159	0
161	31
163	7
165	482
166	555
167	90
168	51
169	5
170	2
175	2
177	0
179	6
181	1
185	3
191	1
193	143
194	176
195	29
196	17
197	4
198	1
211	8
213	2
220	11
221	3
222	1
223	0
225	4
226	0
238	2
239	637
240	62
241	60
242	5
243	2
263	1
264	0
266	16
267	9
268	2
269	0
