Mass Spectrum: Isoquinoline, decahydro-
Formula: C9H17N
CAS: 6329-61-9
Molecular weight: 139
m/z	intensity
14	1
15	18
16	1
26	7
27	97
28	94
29	98
30	706
31	16
32	7
37	2
38	6
39	127
40	20
41	228
42	153
43	356
44	999
45	71
46	14
47	2
48	2
49	1
50	8
51	21
52	13
53	65
54	75
55	125
56	283
57	314
58	30
59	7
60	2
61	4
62	3
63	7
64	2
65	25
66	14
67	169
68	70
69	44
70	72
71	15
72	3
73	1
74	2
75	2
76	2
77	32
78	15
79	71
80	40
81	77
82	129
83	43
84	32
85	12
86	1
89	2
90	1
91	21
92	6
93	39
94	41
95	38
96	621
97	66
98	18
99	1
102	2
103	5
104	6
105	56
106	9
107	13
108	44
109	41
110	61
111	28
112	4
115	3
116	1
117	4
118	4
119	5
120	16
121	4
122	15
123	2
124	96
125	9
126	1
128	2
129	4
130	7
131	3
132	10
133	7
134	2
135	2
136	8
137	5
138	388
139	376
140	39
141	4
