Mass Spectrum: Ethyl 3-(p-acetamidoanilino)crotonate
Formula: C14H18N2O3
CAS: 63304-45-0
Molecular weight: 262
m/z	intensity
14	2
15	12
26	4
27	18
28	33
29	10
30	4
31	11
37	2
38	7
39	27
40	9
41	17
42	19
43	108
44	5
45	8
46	4
50	6
51	16
52	52
53	75
54	24
55	8
56	2
57	2
61	2
62	6
63	19
64	16
65	55
66	15
67	16
68	3
69	2
71	1
74	1
75	3
76	4
77	11
78	16
79	31
80	188
81	83
82	8
83	1
84	1
85	1
87	1
88	1
89	2
90	15
91	23
92	33
93	14
94	3
95	1
97	1
102	2
103	3
104	9
105	22
106	32
107	356
108	999
109	95
110	4
115	1
116	2
117	5
118	12
119	6
120	2
121	4
122	1
128	1
129	1
130	6
131	32
132	79
133	44
134	24
135	4
136	2
142	1
143	2
144	2
145	21
146	39
147	19
148	7
149	10
150	711
151	70
152	5
156	1
157	2
158	3
159	15
160	4
161	1
171	2
172	2
173	40
174	185
175	104
176	14
177	3
178	3
185	2
187	3
188	3
189	11
190	9
191	1
192	4
193	1
200	2
201	11
202	1
206	1
215	7
216	164
217	53
218	6
219	4
220	4
221	3
243	1
247	2
261	2
262	205
263	34
264	4
