Mass Spectrum: Cyclohexanecarbonitrile, 2-hydroxy-, trans-
Formula: C7H11NO
CAS: 63301-31-5
Molecular weight: 125
m/z	intensity
37	25
39	455
40	130
41	387
42	111
43	191
44	238
45	6
49	1
50	36
51	68
52	85
54	999
55	104
57	282
58	10
62	6
63	13
64	16
65	18
66	25
67	54
68	130
69	304
70	19
71	1
76	5
77	15
79	41
80	28
81	21
82	178
83	11
94	1
96	235
97	82
98	3
106	4
108	1
124	3
