Mass Spectrum: 1,2,3,4,5-Penta-O-acetyl-D-xylitol
Formula: C15H22O10
CAS: 6330-69-4
Molecular weight: 362
m/z	intensity
41	119
42	62
43	999
44	109
45	69
55	199
57	279
60	39
61	39
67	49
68	42
69	179
70	87
71	149
72	9
73	129
81	179
82	69
83	119
84	49
85	319
86	139
96	86
97	76
98	119
99	169
100	99
103	569
109	42
110	44
111	91
112	39
113	52
115	999
116	299
127	349
128	149
129	46
140	119
141	119
145	639
155	59
157	199
158	219
159	119
170	69
175	129
187	309
200	109
217	419
289	99
303	7
