Mass Spectrum: 4-Imidazolidinone, 5-(phenylmethyl)-2-thioxo-
Formula: C10H10N2OS
CAS: 6330-09-2
Molecular weight: 206
m/z	intensity
41	70
43	38
50	35
51	70
52	24
55	35
57	35
59	49
60	76
63	52
65	191
74	31
76	28
77	56
78	35
86	35
89	35
90	24
91	999
92	146
103	31
104	28
115	21
116	28
117	38
118	20
206	363
207	45
208	24
