Mass Spectrum: 4-(2,6-Dimethylcyclohexyl)butan-2-one
Formula: C12H22O
CAS: 63307-60-8
Molecular weight: 182
m/z	intensity
41	180
42	25
43	60
44	25
45	110
46	50
53	20
54	20
55	450
56	50
57	120
58	290
59	110
67	250
68	370
69	999
70	90
71	380
72	160
73	10
77	10
79	65
81	350
82	500
83	110
84	30
85	10
91	15
93	115
94	60
95	470
96	170
97	50
106	25
107	180
108	110
109	940
110	140
111	290
112	35
121	45
122	290
123	70
124	400
125	290
126	20
135	45
149	770
150	100
163	20
164	150
165	20
167	50
182	235
183	31
184	2
