Mass Spectrum: Octanoic acid, 2-ethylhexyl ester
Formula: C16H32O2
CAS: 63321-70-0
Molecular weight: 256
m/z	intensity
26	25
27	149
28	43
29	235
30	15
31	15
38	9
39	112
40	33
41	505
42	161
43	509
44	22
45	27
51	13
53	35
54	32
55	425
56	209
57	999
58	55
59	23
60	122
61	57
63	8
65	8
67	48
68	29
69	145
70	762
71	338
72	18
73	81
74	29
79	9
80	6
81	12
82	62
83	231
84	225
85	68
86	18
87	58
89	8
95	8
96	6
97	43
98	49
99	17
101	52
108	6
109	35
110	9
111	22
112	452
113	82
115	25
125	8
126	7
127	579
128	59
129	18
144	59
145	135
146	12
157	11
