Mass Spectrum: 1-(4-Bromo-phenyl)-2-morpholin-4-yl-ethanone
Formula: C12H14BrNO2
CAS: 6332-25-8
Molecular weight: 283
m/z	intensity
38	3
39	13
41	103
42	172
43	25
44	20
45	8
50	62
51	15
53	5
54	23
56	164
57	14
58	2
61	0
62	4
63	10
64	2
65	2
68	4
70	105
71	9
72	49
74	49
75	85
76	98
77	16
79	18
80	22
81	16
82	24
83	0
84	2
85	5
86	5
87	5
88	1
89	23
90	19
91	5
92	0
98	9
100	999
101	56
102	7
103	4
104	14
105	4
106	1
107	1
114	1
115	2
116	2
117	3
118	4
119	1
127	0
128	4
129	6
130	2
131	7
132	0
143	2
144	0
145	2
146	0
155	170
156	17
157	166
158	12
159	1
169	14
171	16
172	1
180	0
181	0
183	81
185	84
186	6
196	0
198	2
199	0
200	2
201	0
202	0
203	0
208	0
210	0
212	0
214	0
223	0
224	0
226	0
228	0
230	0
239	0
241	0
243	0
244	0
252	0
254	0
255	0
257	0
270	0
271	3
272	0
282	1
283	11
284	2
285	11
286	2
