Mass Spectrum: 1-Methylimidazole, 2-benzylthio-
Formula: C11H12N2S
CAS: 63348-55-0
Molecular weight: 204
m/z	intensity
26	9
27	21
28	22
29	14
39	67
40	14
41	41
42	96
43	70
44	8
45	35
50	12
51	33
52	16
53	8
54	15
55	32
56	12
57	19
58	22
59	7
62	11
63	39
64	12
65	161
66	12
68	10
69	28
70	8
71	11
72	131
73	9
74	11
76	6
77	22
78	8
79	7
81	19
82	21
83	16
84	10
85	6
86	9
89	34
90	14
91	999
92	100
93	9
95	58
97	8
100	7
104	11
105	9
112	7
113	88
114	16
115	9
121	29
122	7
123	7
127	50
128	8
130	10
134	6
143	8
144	8
156	8
157	21
158	6
159	6
167	6
169	9
170	18
171	292
172	40
189	15
203	46
204	536
205	82
206	33
207	6
