Mass Spectrum: Piperidine, 1-[(4-aminophenyl)sulphonyl]-
Formula: C11H16N2O2S
CAS: 6336-68-1
Molecular weight: 240
m/z	intensity
39	260
40	86
41	196
42	425
43	122
44	22
54	1
55	119
56	72
57	9
65	468
66	105
84	934
85	320
91	16
92	792
93	999
94	265
108	684
109	198
140	273
141	23
156	926
157	490
158	74
239	98
240	606
241	185
242	0
