Mass Spectrum: Benzene, 1,1'-(1,2-ethanediyl)bis[3,5-dimethyl-
Formula: C18H22
CAS: 63376-64-7
Molecular weight: 238
m/z	intensity
77	100
79	80
105	280
119	999
132	100
133	100
154	100
193	20
208	200
223	250
238	230
