Mass Spectrum: 1,3-Dioxolan-4-one, 2,2-dimethyl-5-phenyl-
Formula: C11H12O3
CAS: 6337-34-4
Molecular weight: 192
m/z	intensity
26	8
27	56
28	8
29	57
31	7
32	3
33	1
35	4
36	3
37	13
38	36
39	152
40	29
41	65
42	70
43	539
44	19
45	12
46	3
47	2
48	4
50	109
51	282
52	65
53	15
54	4
55	10
56	3
57	12
58	12
59	42
60	5
61	11
62	73
63	165
64	69
65	22
69	6
70	3
71	3
72	3
73	5
74	35
75	20
77	508
78	123
79	237
80	9
83	3
85	6
86	8
87	13
89	413
90	999
91	544
92	43
102	4
103	8
105	508
106	105
107	403
108	34
110	2
111	4
112	3
115	10
117	3
119	162
120	22
121	3
122	5
124	1
125	1
128	2
129	33
130	36
133	196
134	22
136	3
142	2
143	1
145	2
146	2
147	314
148	971
149	176
150	19
151	1
153	2
157	2
163	1
164	2
165	1
177	21
178	2
192	25
193	4
