Mass Spectrum: 2-Furancarboxylic acid, 5-(hydroxymethyl)-
Formula: C6H6O4
CAS: 6338-41-6
Molecular weight: 142
m/z	intensity
29	6
39	21
40	3
41	262
42	10
43	6
44	3
45	19
53	12
55	8
60	7
68	24
69	279
70	14
79	47
80	14
95	31
96	8
97	999
98	78
99	8
113	178
114	10
123	117
124	10
125	119
126	16
141	42
142	762
143	51
144	8
