Mass Spectrum: Ethanethiol, 2-phenoxy-
Formula: C8H10OS
CAS: 6338-63-2
Molecular weight: 154
m/z	intensity
44	30
45	60
47	10
50	20
51	50
55	20
58	20
59	60
60	70
61	150
62	10
63	20
65	80
66	70
77	80
94	999
95	70
153	10
154	40
