Mass Spectrum: Morpholine, 4-[(4-methylphenyl)sulfonyl]-
Formula: C11H15NO3S
CAS: 6339-26-0
Molecular weight: 241
m/z	intensity
15	11
26	3
27	19
28	89
29	44
30	29
31	5
32	1
38	2
39	33
40	4
41	24
42	61
43	5
44	4
45	7
50	6
51	14
52	4
53	2
54	16
55	33
56	728
57	34
58	10
59	7
60	1
62	5
63	24
64	7
65	110
66	6
67	2
69	1
71	1
72	48
73	2
74	1
75	1
76	2
77	9
78	3
79	4
84	18
85	19
86	999
87	59
88	4
89	31
90	16
91	389
92	41
93	3
103	1
104	1
105	33
106	154
107	14
108	2
111	1
117	1
118	7
119	13
120	1
121	1
122	1
123	1
124	1
132	4
133	5
134	2
135	1
139	19
140	2
141	1
146	18
147	2
155	315
156	27
157	17
158	1
176	7
177	2
184	14
185	1
196	1
198	161
199	17
200	8
210	64
211	8
212	3
226	9
227	1
239	3
240	9
241	639
242	88
243	37
244	4
