Mass Spectrum: Conhydrin
Formula: C8H17NO
CAS: 63401-12-7
Molecular weight: 143
m/z	intensity
41	47
42	18
43	20
55	50
56	106
57	21
67	11
68	10
69	10
84	999
85	64
96	11
114	18
143	6
