Mass Spectrum: 2,2'-Bis[2-phenylethylene]carbonic dihydrazide
Formula: C17H18N4O
CAS: 6341-78-2
Molecular weight: 294
m/z	intensity
41	44
42	19
43	201
44	27
45	6
46	0
47	10
48	4
49	50
50	44
51	155
52	48
53	15
54	4
55	22
56	6
57	23
58	4
59	3
60	9
61	7
62	14
63	72
64	23
65	281
66	19
67	5
68	2
69	11
70	3
71	4
73	2
74	9
75	12
76	20
77	220
78	192
79	65
80	5
81	2
82	2
83	7
84	35
85	3
86	510
87	16
88	6
89	91
90	145
91	999
92	38
93	14
94	2
95	1
96	0
97	2
98	3
99	10
101	14
102	29
103	167
104	135
105	73
106	83
107	21
108	1
111	2
112	0
113	0
114	0
115	2
116	69
117	363
118	482
119	113
120	26
121	2
124	2
125	1
127	0
128	2
129	1
130	3
131	25
132	16
133	68
134	192
135	64
136	4
139	0
141	0
143	1
144	1
145	10
146	2
147	1
149	1
152	0
158	2
159	12
160	10
161	141
162	13
163	0
165	0
167	1
174	2
175	3
176	4
177	1
178	1
179	0
180	0
186	1
187	1
189	1
193	0
194	1
201	6
203	779
204	95
205	8
206	0
208	0
218	1
225	0
236	0
237	0
241	0
290	0
291	0
292	7
294	84
295	17
296	1
