Mass Spectrum: Cyclohexanecarboxamide, N-furfuryl-
Formula: C12H17NO2
CAS: 6341-32-8
Molecular weight: 207
m/z	intensity
37	16
38	44
39	265
41	463
43	101
44	29
45	6
46	1
50	29
51	66
53	402
55	725
56	39
57	6
58	2
59	4
60	1
63	6
64	4
65	19
66	23
67	77
68	68
69	120
70	11
72	13
73	3
76	6
77	27
78	15
79	51
81	999
82	135
83	670
84	70
85	3
86	1
91	5
92	3
93	10
94	40
95	49
96	136
97	396
98	45
99	3
100	0
103	0
104	2
105	4
106	4
107	8
108	14
109	28
110	63
111	75
112	7
113	1
117	0
118	1
120	7
121	8
122	16
123	9
124	7
125	4
126	11
127	5
128	2
131	1
132	2
133	4
134	6
135	3
136	7
138	27
139	37
140	3
141	0
145	1
146	3
147	5
148	4
150	22
152	85
153	5
154	0
160	3
161	2
162	4
163	2
164	7
165	5
166	7
167	0
174	0
175	7
176	4
178	84
179	8
181	2
182	1
188	1
190	6
191	1
192	4
193	0
207	666
208	71
209	6
