Mass Spectrum: D-Fructose, 1,3,4,5,6-pentaacetate
Formula: C16H22O11
CAS: 6341-07-7
Molecular weight: 390
m/z	intensity
44	857
45	740
46	18
47	11
48	2
49	7
50	18
51	37
52	32
53	67
54	35
55	151
56	42
57	112
58	21
59	16
60	233
61	203
62	11
63	9
64	4
65	9
66	11
67	16
68	292
69	268
70	42
71	191
72	32
73	999
74	60
75	14
77	9
78	9
79	9
80	7
81	28
82	16
83	18
84	60
85	871
86	257
87	35
88	7
89	9
90	7
91	4
95	11
96	16
97	151
98	35
99	44
100	39
101	817
102	140
103	292
104	14
109	42
110	16
111	9
112	4
113	107
114	42
115	373
116	46
117	7
125	7
126	84
127	504
128	387
129	37
130	7
131	21
132	42
133	4
139	7
142	9
143	18
144	28
145	198
146	14
155	44
156	16
157	116
158	14
168	23
169	49
170	303
171	35
172	4
173	28
174	14
186	16
187	455
188	42
189	4
193	4
211	28
215	23
216	4
227	18
229	7
230	7
233	18
275	46
276	4
289	37
290	4
317	4
331	7
