Mass Spectrum: 4-Vinyl-4,5-dihydro-3H-pyrazole
Formula: C5H8N2
CAS: 63438-33-5
Molecular weight: 96
m/z	intensity
25	3
26	69
27	454
28	211
29	51
30	10
31	2
32	5
33	2
36	1
37	47
38	116
39	776
40	442
41	464
42	405
43	16
44	0
45	4
49	5
50	49
51	83
52	58
53	848
54	95
55	6
56	1
61	3
62	7
63	15
64	8
65	70
66	76
67	999
68	215
69	15
70	0
81	3
94	0
95	4
96	69
97	12
98	0
