Mass Spectrum: Benzene, 1-ethenyl-4-(2-methylpropyl)-
Formula: C12H16
CAS: 63444-56-4
Molecular weight: 160
m/z	intensity
26	2
27	20
29	4
38	2
39	37
40	1
41	29
42	0
43	18
44	0
50	7
51	22
52	6
53	4
55	4
57	1
58	5
59	1
62	4
63	19
64	7
65	23
67	0
68	0
69	0
70	3
71	3
72	0
74	3
75	8
76	4
77	20
78	15
79	2
81	1
82	0
86	1
87	2
88	0
89	18
90	4
91	81
92	5
94	0
98	0
101	0
102	12
103	11
104	31
105	5
106	0
109	0
110	0
112	0
113	1
114	2
115	129
116	35
117	999
118	191
119	16
120	0
121	0
126	0
127	5
128	23
129	10
130	4
131	2
133	0
139	2
141	5
142	1
143	2
144	1
145	5
146	0
158	0
159	1
160	268
161	43
162	2
