Mass Spectrum: 3-Hexene, 1,1'-[ethylidenebis(oxy)]bis-, (Z,Z)-
Formula: C14H26O2
CAS: 63449-64-9
Molecular weight: 226
m/z	intensity
29	39
31	8
36	192
37	9
39	10
41	319
42	28
43	71
45	40
53	9
54	82
55	931
56	80
57	21
58	20
61	9
67	138
68	19
69	91
70	29
81	18
82	218
83	999
84	149
85	10
91	9
97	10
113	10
127	451
128	60
