Mass Spectrum: 1-Methoxy-2-aminobutane
Formula: C5H13NO
CAS: 63448-63-5
Molecular weight: 103
m/z	intensity
14	2
15	27
16	1
17	5
18	18
26	4
27	26
28	40
29	20
30	113
31	27
32	5
33	4
38	2
39	15
40	4
41	206
42	76
43	50
44	63
45	68
46	3
47	8
51	1
52	1
53	7
54	5
55	10
56	36
57	12
58	999
59	69
60	2
67	2
68	4
69	1
70	9
71	14
72	8
73	17
74	130
75	11
85	3
86	4
102	1
