Mass Spectrum: 4-Piperidinone, 2,3-dimethyl-1-(3-phenyl-2-propynyl)-
Formula: C16H19NO
CAS: 63445-60-3
Molecular weight: 241
m/z	intensity
27	50
28	53
29	41
39	39
41	48
42	62
54	42
55	35
56	168
57	57
63	40
65	40
70	98
71	28
77	13
89	65
112	23
113	21
114	29
115	999
116	117
128	34
129	38
142	36
143	37
156	101
157	34
169	36
170	69
171	36
184	117
198	56
199	88
212	41
213	46
226	204
227	40
240	72
241	260
242	49
