Mass Spectrum: 2,4-Imidazolidinedione, 3,5,5-trimethyl-
Formula: C6H10N2O2
CAS: 6345-19-3
Molecular weight: 142
m/z	intensity
41	90
42	999
43	50
56	30
57	280
58	80
70	20
84	40
99	20
114	40
127	940
128	70
142	240
143	30
