Mass Spectrum: 2,4-Dihydroxybenzaldehyde phenylhydrazone
Formula: C13H12N2O2
CAS: 63452-52-8
Molecular weight: 228
m/z	intensity
26	7
27	55
28	193
29	25
32	30
36	16
37	11
38	54
39	202
40	32
41	51
42	20
43	66
44	13
50	57
51	153
52	98
53	106
54	24
55	49
56	12
62	20
63	101
64	88
65	474
66	219
67	29
68	19
69	87
70	16
71	21
73	4
74	7
75	6
76	13
77	129
78	45
79	35
80	52
81	85
82	12
91	254
92	400
93	999
94	118
95	9
96	3
105	5
106	9
107	17
108	22
109	17
110	9
111	6
112	5
114	54
115	4
118	53
119	66
120	9
121	23
122	8
123	55
128	4
130	9
135	42
136	62
137	47
144	3
148	19
149	5
154	10
156	3
157	15
165	2
171	26
172	9
181	4
182	8
183	7
185	4
197	5
199	8
200	9
211	136
212	36
213	2
226	9
227	240
228	932
229	124
230	6
