Mass Spectrum: Cyclopropa[3,4]pentaleno[1,2-d][1,3]dioxole, 2a,2b,2c,5a,5b,5c-hexahydro-4,4-dimethyl-, (2a.alpha.,2b.alpha.,2c.alpha.,5a.alpha.,5b.alpha.,5c.alpha.)-
Formula: C11H14O2
CAS: 63456-13-3
Molecular weight: 178
m/z	intensity
39	150
43	270
51	50
52	30
55	150
65	150
78	60
85	160
91	999
100	70
103	190
120	530
163	16
178	8
