Mass Spectrum: Benzo[3,4]cyclobuta[1,2-d]-1,3-dioxole, 3a,3b,7a,7b-tetrahydro-2,2-dimethyl-, (3a.alpha.,3b.beta.,7a.beta.,7b.alpha.)-
Formula: C11H14O2
CAS: 63456-12-2
Molecular weight: 178
m/z	intensity
39	220
41	200
43	410
51	80
52	50
60	200
65	160
78	90
85	999
91	780
100	480
103	90
120	110
163	70
178	13
