Mass Spectrum: 5-[p-Fluorophenoxy]-6-methoxy-8-aminoquinoline
Formula: C16H13FN2O2
CAS: 63460-38-8
Molecular weight: 284
m/z	intensity
41	65
42	35
43	20
44	24
45	24
47	25
48	10
49	83
50	170
51	236
52	194
53	86
54	20
55	9
56	22
57	146
58	6
59	4
61	23
62	90
63	233
64	125
65	76
66	21
67	6
68	168
69	91
70	14
71	2
72	0
74	127
75	961
76	314
77	105
78	181
79	307
80	28
81	26
83	235
84	61
85	8
86	53
87	28
88	34
89	80
90	73
91	137
92	41
93	26
95	999
96	79
97	3
98	4
99	7
100	10
101	16
102	91
103	217
104	91
105	236
106	38
107	10
108	4
109	25
110	4
111	13
112	10
113	7
114	26
115	36
116	152
117	75
118	199
119	24
120	11
121	2
122	5
123	39
124	4
125	10
126	8
127	5
128	2
129	49
130	47
131	120
132	33
133	24
134	12
135	3
136	1
137	1
138	2
139	3
140	4
142	41
143	84
144	55
146	595
147	103
148	6
149	2
150	2
151	3
152	4
153	2
154	2
155	5
156	3
157	25
158	14
159	33
161	926
162	114
163	9
164	5
165	3
166	12
167	4
168	4
169	9
170	9
171	12
172	26
173	17
174	16
175	24
176	7
177	4
178	2
179	1
180	0
181	1
182	2
183	0
184	17
185	35
186	22
187	10
189	907
190	89
191	10
192	7
193	5
194	3
195	10
196	20
197	12
198	10
199	13
200	3
203	2
204	0
205	3
206	1
207	1
208	2
209	1
210	4
211	7
212	15
213	21
214	4
215	0
220	0
221	3
223	24
224	5
225	127
226	20
227	6
228	1
233	0
234	0
235	2
236	1
237	2
239	23
240	2
241	63
242	10
243	0
251	4
252	15
253	6
254	2
255	3
256	0
265	2
266	3
267	5
268	1
269	30
270	5
281	0
282	0
284	955
285	176
286	15
287	0
