Mass Spectrum: N-{[(2-Methylprop-2-enamido)methanethioyl]amino}pyridine-4-carboxamide
Formula: C11H12N4O2S
CAS: 63483-78-3
Molecular weight: 264
m/z	intensity
37	21
38	58
39	380
40	91
41	999
42	77
43	43
44	65
45	33
50	149
51	392
52	56
53	26
54	7
55	14
56	3
58	17
59	28
60	56
64	3
65	4
66	7
67	8
69	795
70	38
73	25
74	4
75	8
76	9
78	403
79	89
80	9
86	39
91	7
93	5
95	64
100	8
101	2
105	29
106	424
107	60
112	2
114	9
115	66
116	7
117	4
119	7
122	20
123	35
126	1
128	39
130	5
137	51
138	2
141	3
142	7
143	9
147	7
154	9
162	5
163	26
178	5
179	17
180	7
189	3
190	4
203	4
231	281
232	35
233	15
249	2
264	271
265	41
266	16
