Mass Spectrum: Cyclododeca[d]pyrimidine-2,4(1H,3H)-dione, 6,7,8,9,10,11,12,13,14,15-decahydro-
Formula: C14H22N2O2
CAS: 63498-96-4
Molecular weight: 250
m/z	intensity
34	0
37	1
38	23
39	409
40	139
41	999
42	281
43	300
44	146
45	231
46	2
50	14
51	64
52	235
53	288
54	378
55	666
56	132
57	61
58	9
59	9
60	10
61	4
63	19
64	14
65	106
66	88
67	245
68	148
69	230
70	85
71	26
72	1
73	2
74	1
76	4
77	116
78	40
79	118
80	179
81	155
82	144
83	72
84	32
85	12
87	2
88	1
89	6
90	1
91	115
92	35
93	76
94	119
95	221
96	120
97	70
98	26
99	3
103	6
104	13
105	25
106	33
107	38
108	366
109	69
110	89
111	31
112	22
113	25
115	5
116	1
117	8
118	3
119	15
120	25
121	21
122	148
123	31
124	35
125	32
126	219
127	96
128	10
129	25
130	2
131	1
133	8
134	15
135	12
136	85
137	21
138	154
139	547
140	678
141	77
142	5
146	8
147	5
148	9
149	9
150	41
151	337
152	161
153	371
154	106
155	13
162	2
163	42
165	533
166	245
167	236
168	37
169	4
171	10
175	1
176	1
177	18
179	430
180	145
181	71
182	18
190	1
191	4
193	472
194	71
195	72
196	8
205	7
207	340
208	47
209	58
210	6
221	51
222	12
223	1
233	112
234	18
235	86
236	14
248	0
250	503
251	82
252	5
