Mass Spectrum: 1-Cyclohexene-1,2-dicarboxylic acid
Formula: C8H10O4
CAS: 635-08-5
Molecular weight: 170
m/z	intensity
50	178
51	319
52	363
53	123
77	206
78	115
79	999
80	445
81	156
107	73
108	313
109	40
123	39
124	60
125	65
126	37
152	304
153	119
154	43
