Mass Spectrum: Tridecanedial
Formula: C13H24O2
CAS: 63521-76-6
Molecular weight: 212
m/z	intensity
26	17
27	218
28	32
29	407
30	14
31	46
37	3
38	6
39	214
40	39
41	813
42	183
43	582
44	329
45	104
46	4
50	5
51	12
52	9
53	90
54	292
55	999
56	261
57	654
58	67
59	25
60	25
61	9
63	4
64	2
65	25
66	57
67	856
68	498
69	735
70	208
71	256
72	53
73	41
74	10
75	5
76	2
77	25
78	17
79	154
80	160
81	784
82	634
83	509
84	203
85	149
86	77
87	29
88	20
89	4
91	34
92	20
93	146
94	173
95	958
96	319
97	233
98	384
99	86
100	29
101	16
102	4
103	6
104	3
105	17
106	13
107	88
108	110
109	415
110	116
111	169
112	133
113	35
114	7
115	9
116	3
117	4
118	3
119	23
120	17
121	184
122	68
123	63
124	95
125	62
126	33
127	17
128	5
129	13
130	2
131	3
132	2
133	33
134	37
135	65
136	14
137	51
138	47
139	22
140	34
141	15
142	3
143	5
147	40
148	42
149	37
150	188
151	129
152	26
153	10
154	4
155	5
156	5
157	9
158	2
161	7
162	3
163	11
164	6
165	15
166	29
167	23
168	29
169	28
170	5
171	5
175	5
176	31
177	9
178	2
179	3
180	3
181	3
182	5
183	4
184	20
185	5
193	3
194	21
195	6
197	2
210	2
211	7
212	8
213	38
214	6
