Mass Spectrum: Ethanone, 2-(2-benzimidazolylthio)-1-(4-fluorophenyl)-
Formula: C15H11FN2OS
CAS: 63529-32-8
Molecular weight: 286
m/z	intensity
33	5
34	4
36	2
37	15
38	35
39	95
40	77
41	23
42	23
43	39
44	50
45	58
46	10
47	1
48	0
49	7
50	45
51	51
52	24
53	4
54	3
55	11
56	9
57	28
58	6
59	8
60	3
61	9
62	31
63	80
64	53
65	30
66	3
67	2
68	13
69	31
70	17
71	5
72	4
73	5
74	34
75	102
76	24
77	36
78	28
79	2
80	0
81	7
82	10
83	39
84	7
85	0
87	0
88	3
89	15
90	54
91	46
92	28
93	11
94	73
95	391
96	48
97	3
98	0
101	3
102	5
103	3
104	5
105	10
106	9
107	10
108	14
109	55
110	3
111	0
112	0
116	0
117	7
118	44
119	66
120	14
122	316
123	999
124	75
125	3
127	1
129	5
130	1
131	9
132	0
133	1
134	4
135	3
136	1
138	30
139	4
149	102
150	42
151	10
152	21
153	1
163	596
164	45
165	19
166	0
171	0
180	0
224	1
225	11
226	0
243	11
244	52
245	4
253	0
258	30
259	2
285	14
286	128
287	19
288	5
