Mass Spectrum: Pyrrole-2,5-dione, 1-(2,3,5,6-tetrafluorophenyl)-
Formula: C10H3F4NO2
CAS: 63539-54-8
Molecular weight: 245
m/z	intensity
33	77
34	8
36	1
37	11
38	10
40	16
41	12
42	25
43	65
44	50
45	6
50	1
51	20
52	14
53	135
54	999
55	39
56	24
57	6
60	1
61	5
62	4
63	23
68	18
69	55
70	8
71	1
74	17
75	63
76	10
77	0
79	9
80	23
81	7
82	54
83	2
86	10
87	6
92	0
93	32
94	32
95	6
96	1
98	8
99	79
100	15
105	3
106	12
109	8
112	13
113	179
114	8
117	17
118	34
119	6
123	8
124	7
125	0
130	2
136	8
137	20
138	0
139	0
143	3
144	34
149	21
156	4
162	22
163	80
164	4
165	6
169	21
170	28
171	1
175	126
176	75
177	3
186	4
188	12
189	88
190	6
191	64
192	4
197	9
198	26
199	1
200	53
201	183
202	14
207	1
216	14
217	12
226	4
227	1
245	709
246	83
247	5
