Mass Spectrum: 3-(p-Mercaptophenyl)propionic acid
Formula: C9H10O2S
CAS: 63545-55-1
Molecular weight: 182
m/z	intensity
15	1
17	1
18	3
26	1
27	16
28	5
32	1
33	1
34	1
37	1
38	6
39	39
40	3
41	7
42	3
43	8
44	5
45	94
46	2
47	5
49	1
50	15
51	37
52	9
53	10
54	2
55	8
57	8
58	9
59	10
60	3
61	4
62	9
63	27
64	5
65	39
66	9
67	11
68	11
69	31
70	15
71	11
72	1
73	3
74	7
75	8
76	7
77	92
78	43
79	101
80	6
81	4
82	10
83	5
84	5
85	2
86	2
87	2
89	17
90	9
91	91
92	9
93	4
94	1
95	7
96	3
97	9
98	1
99	1
101	3
102	18
103	33
104	28
105	10
106	2
107	68
108	11
109	15
110	12
111	7
112	1
113	1
114	2
119	1
120	1
121	43
122	20
123	999
124	86
125	49
126	4
131	2
133	2
134	14
135	96
136	75
137	20
138	5
139	9
140	1
147	1
149	5
150	3
151	9
152	1
153	2
163	10
164	2
165	3
181	9
182	441
183	48
184	23
185	2
