Mass Spectrum: 6-Acetamido-1,4-benzodioxane
Formula: C10H11NO3
CAS: 63546-19-0
Molecular weight: 193
m/z	intensity
41	107
42	33
43	505
44	16
45	11
47	5
48	2
49	28
50	36
51	96
52	94
53	67
54	23
55	17
56	3
57	5
60	0
61	5
62	16
63	29
64	17
65	32
66	30
67	226
68	77
69	21
70	4
71	3
73	1
74	4
75	4
76	6
77	23
78	41
79	49
80	99
81	14
82	4
83	4
84	17
85	2
86	10
87	0
88	4
89	5
90	1
91	5
92	6
93	33
94	11
95	999
96	73
97	12
98	0
102	0
104	17
105	7
106	34
107	20
108	5
109	10
110	0
111	1
115	1
116	2
117	0
120	2
121	23
122	32
123	27
124	21
125	3
129	0
132	5
133	1
134	0
135	1
136	24
137	4
139	0
142	3
143	3
144	1
148	0
149	6
150	54
151	774
152	78
153	7
159	1
162	4
163	0
164	7
165	1
174	1
177	9
178	3
192	12
193	833
194	98
195	10
