Mass Spectrum: Cyclohexene, 4-(2-bromoethyl)-
Formula: C8H13Br
CAS: 63540-01-2
Molecular weight: 188
m/z	intensity
25	1
26	35
27	191
28	54
29	53
30	1
31	1
37	4
38	18
39	193
40	23
41	154
42	11
43	7
44	1
45	1
49	2
50	35
51	69
52	42
53	119
54	270
55	94
56	5
57	1
61	1
62	7
63	19
64	3
65	63
66	40
67	378
68	29
69	8
70	0
71	1
72	0
73	1
74	7
75	4
76	3
77	149
78	48
79	373
80	89
81	999
82	179
83	12
84	0
87	0
89	3
90	1
91	73
92	10
93	77
94	10
95	108
96	10
97	1
98	0
102	1
103	3
104	3
105	8
106	4
107	17
108	33
109	257
110	25
111	2
115	0
117	0
119	6
120	0
121	5
122	1
123	0
132	0
133	1
134	2
135	8
136	1
137	7
141	0
146	0
147	5
148	0
149	4
152	0
154	0
155	1
156	0
160	12
161	0
162	9
163	0
173	5
175	4
176	0
186	0
187	1
188	44
189	5
190	44
191	4
