Mass Spectrum: 1,3-Dioxan-5-ol, 2-phenyl-4-(1H-pyrazol-3-yl)-, [2R-(2.alpha.,4.alpha.,5.beta.)]-
Formula: C13H14N2O3
CAS: 63554-26-7
Molecular weight: 246
m/z	intensity
77	180
79	190
91	58
97	999
105	70
106	36
107	520
110	52
123	15
140	43
149	7
169	1
203	90
245	0
246	0
247	0
