Mass Spectrum: 1H-Pyrazole, 1-benzoyl-3-[5-(benzoyloxy)-2-phenyl-1,3-dioxan-4-yl]-, [2R-(2.alpha.,4.alpha.,5.beta.)]-
Formula: C27H22N2O5
CAS: 63554-28-9
Molecular weight: 454
m/z	intensity
71	1
77	190
79	37
91	27
105	999
106	80
107	6
122	50
149	10
161	3
227	13
305	62
318	0
331	0
332	6
348	16
377	0
411	0
453	0
454	2
455	0
