Mass Spectrum: Nickel, bis[N,N'-1,2-ethanediylidenebis[cyclohexanamine]-N,N']-, (t-4)-
Formula: C28H48N4Ni
CAS: 63576-86-3
Molecular weight: 498
m/z	intensity
24	3
25	7
26	38
27	205
28	106
29	200
30	80
31	3
35	1
37	7
38	10
39	207
40	52
41	867
42	108
43	77
44	21
46	1
47	1
48	1
49	3
50	9
51	24
52	23
53	98
54	179
55	999
56	114
57	41
58	6
59	1
62	3
63	5
64	6
65	21
66	23
67	178
68	115
69	141
70	17
71	1
72	1
74	2
75	4
77	22
78	7
79	39
80	43
81	128
82	808
83	665
84	44
85	7
86	4
87	6
88	2
89	2
90	2
91	34
92	27
93	30
94	37
95	527
96	188
97	36
98	18
99	4
100	2
101	6
103	1
104	1
105	4
106	10
107	34
108	30
109	107
110	80
111	31
112	8
113	9
114	8
115	6
116	4
117	3
118	2
119	7
120	18
121	38
122	62
123	28
124	16
125	2
126	5
127	3
128	3
129	1
130	2
131	3
132	2
133	3
134	4
135	16
136	10
137	181
138	65
139	122
140	17
141	11
142	12
143	4
144	4
145	2
147	2
148	2
149	71
150	14
151	7
152	5
153	8
154	7
155	6
156	7
157	4
159	2
160	9
161	1
162	3
163	14
164	88
165	17
166	6
167	9
168	9
169	4
170	2
171	3
172	1
173	1
174	2
175	3
176	10
177	494
178	77
179	10
180	4
181	3
182	4
183	3
189	2
190	3
191	48
192	16
193	10
194	12
195	14
196	26
197	6
198	5
199	3
200	3
202	1
204	3
205	4
206	3
207	2
208	2
213	1
214	1
215	3
217	2
218	2
219	17
220	51
221	13
222	7
224	2
233	3
235	1
236	3
245	1
246	1
247	2
248	2
249	16
250	6
251	1
261	1
264	1
270	2
271	3
272	4
273	8
274	18
275	18
276	31
277	20
278	181
279	34
280	63
281	16
282	13
283	1
284	2
285	1
488	0
489	1
492	1
493	2
494	3
495	6
496	6
498	132
499	52
500	58
501	25
502	15
503	5
504	2
505	2
