Mass Spectrum: 2-[p-Chlorobenzyl]piperidine
Formula: C12H16ClN
CAS: 63587-52-0
Molecular weight: 209
m/z	intensity
41	57
42	47
43	13
44	8
45	3
47	5
49	30
50	4
51	35
52	6
53	11
54	21
55	45
56	115
57	15
58	3
60	2
61	0
62	6
63	24
65	24
67	18
68	12
69	5
70	4
71	2
72	2
73	6
75	13
77	18
78	4
79	1
80	7
82	19
84	999
85	60
86	12
87	3
89	46
90	6
91	42
92	2
96	2
97	2
99	14
100	10
101	6
102	6
103	9
104	2
105	1
108	1
111	3
112	3
113	2
114	3
115	25
116	11
117	12
118	2
119	1
123	1
124	0
125	67
126	13
127	18
128	6
129	3
130	7
131	3
136	0
137	0
138	4
139	4
140	2
141	2
142	1
143	1
144	2
145	1
149	2
151	4
152	4
153	3
154	1
156	1
158	0
164	1
165	1
166	2
167	1
168	1
170	0
173	1
178	1
180	2
182	0
207	2
208	0
209	6
211	2
212	0
