Mass Spectrum: Propane, 1-chloro-2,2-diethoxy-
Formula: C7H15ClO2
CAS: 63594-18-3
Molecular weight: 166
m/z	intensity
26	18
27	164
28	42
29	398
30	21
31	69
36	7
37	3
38	5
39	48
40	12
41	42
42	45
43	387
44	38
45	94
46	8
47	9
48	3
49	38
50	3
51	14
53	3
54	2
55	15
56	16
57	255
58	74
59	15
60	10
61	479
62	16
63	10
64	2
65	6
67	5
68	5
69	5
70	3
71	6
73	14
75	33
76	6
77	32
78	3
79	12
81	4
82	3
83	7
84	4
85	10
86	9
87	3
89	157
90	8
91	7
92	69
93	999
94	75
95	245
96	20
97	38
98	3
103	20
104	2
105	3
107	44
108	3
109	21
110	2
111	6
112	2
113	3
117	370
118	34
119	4
120	20
121	883
122	81
123	351
124	28
125	16
126	2
151	25
152	2
153	8
154	0
