Mass Spectrum: 1H-Pyrrole, 2-methyl-
Formula: C5H7N
CAS: 636-41-9
Molecular weight: 81
m/z	intensity
25	2
26	12
27	49
28	119
34	3
35	2
36	5
37	6
38	15
39	30
40	25
41	26
42	6
47	1
49	5
50	20
51	29
52	28
53	113
54	12
62	2
63	4
65	1
78	11
79	10
80	999
81	712
82	18
84	2
