Mass Spectrum: Benzenepropanoic acid, .alpha.-(acetyloxy)-.beta.-butyl-.alpha.-(methylthio)-, methyl ester
Formula: C17H24O4S
CAS: 63608-59-3
Molecular weight: 324
m/z	intensity
43	999
91	930
103	180
105	250
115	250
117	150
129	110
134	430
135	500
147	560
177	300
190	180
234	120
264	50
277	10
324	30
