Mass Spectrum: Androst-5-en-17-one, 3-hydroxy-16,16-dimethoxy-, (3.beta.)-
Formula: C21H32O4
CAS: 63608-60-6
Molecular weight: 348
m/z	intensity
58	130
61	110
70	90
79	60
81	50
88	999
89	960
105	50
118	100
143	20
145	20
159	20
199	20
203	20
288	30
317	20
320	10
348	1
