Mass Spectrum: 2-[p-Fluorobenzyloxy]-6-methoxy-8-nitroquinoline
Formula: C17H13FN2O4
CAS: 63624-45-3
Molecular weight: 328
m/z	intensity
41	8
42	0
43	6
44	0
45	5
47	13
49	60
51	158
52	22
53	20
54	0
55	8
57	46
59	30
61	1
62	37
63	79
64	18
65	9
66	4
67	0
69	23
70	6
71	1
74	1
75	69
76	37
77	22
78	1
79	38
81	22
83	199
84	26
86	25
87	20
88	31
89	51
90	18
91	17
95	21
96	5
97	4
99	7
100	7
102	77
103	28
104	30
105	0
107	55
109	999
110	7
111	5
112	4
114	32
115	1
116	43
117	1
118	37
119	5
120	2
121	1
123	83
124	6
125	4
126	8
127	0
128	14
130	43
131	11
132	0
133	29
134	3
135	0
139	0
140	2
142	5
143	6
144	29
145	1
146	86
147	7
148	1
149	0
151	0
153	0
155	6
157	7
158	14
159	30
160	4
161	5
162	3
164	1
169	0
170	0
172	1
173	12
174	178
175	26
176	2
177	0
178	0
181	0
182	0
183	2
184	0
185	0
187	8
188	7
189	5
190	1
191	0
194	0
195	0
196	0
198	1
200	0
201	0
204	270
205	35
206	4
209	5
210	2
211	0
217	1
219	5
220	1
221	0
222	1
223	0
224	0
233	1
237	1
238	1
239	0
250	0
252	1
253	0
262	0
266	0
279	0
280	6
281	1
293	0
294	7
295	2
296	0
298	0
311	2
312	0
328	4
329	1
