Mass Spectrum: Benzenepropanoic acid, .alpha.-oxo-, methyl ester
Formula: C10H10O3
CAS: 6362-58-9
Molecular weight: 178
m/z	intensity
27	50
29	60
31	100
39	120
50	50
51	80
59	80
63	90
65	180
89	90
90	130
91	999
92	90
118	190
119	110
178	110
