Mass Spectrum: Benzamide, N-(5,6,7,9-tetrahydro-10-(methylthio)-9-oxo-1,2,3-trimethoxybenzo(a)heptalen-7-yl)-, (S)-
Formula: C27H27NO5S
CAS: 63620-47-3
Molecular weight: 477
m/z	intensity
41	21
42	16
43	70
44	17
45	28
47	15
48	7
49	26
50	30
51	78
52	11
53	9
54	7
55	18
56	6
57	16
59	7
60	7
63	6
65	8
67	10
69	23
71	8
73	8
74	11
75	18
76	16
77	581
78	48
79	13
81	8
82	7
83	8
84	17
85	6
86	11
91	11
93	6
94	6
95	6
97	8
99	5
103	5
104	37
105	999
106	78
107	9
111	7
113	7
114	5
115	15
119	7
121	7
122	81
123	10
125	5
126	9
127	14
128	11
129	8
131	7
133	5
134	16
135	11
139	21
140	12
141	15
145	7
148	4
149	10
150	6
151	13
152	37
153	16
154	8
155	7
157	5
158	5
163	7
164	9
165	21
166	10
167	14
168	11
169	9
170	4
171	10
172	8
176	8
177	8
178	16
179	10
180	14
181	19
182	7
183	9
184	12
185	10
186	6
187	4
188	14
189	5
190	5
191	7
192	6
193	9
194	12
195	18
196	13
197	10
198	9
199	15
200	6
201	13
205	7
206	8
207	14
208	14
209	22
210	12
211	16
212	11
213	7
214	5
215	9
219	11
220	6
221	12
222	11
223	20
224	16
225	15
226	11
227	20
228	10
229	5
235	15
236	13
237	15
238	30
239	23
240	14
241	12
242	10
243	9
249	8
250	15
251	31
252	15
253	18
254	21
255	23
256	13
257	9
258	8
264	5
265	25
266	80
267	30
268	23
269	15
270	54
271	26
272	11
279	5
280	18
281	54
282	32
283	18
284	15
285	25
286	20
287	9
294	7
295	50
296	22
297	105
298	38
299	16
300	18
301	10
302	4
309	10
310	9
311	7
312	14
313	97
314	33
315	28
316	34
317	9
322	6
323	18
324	9
325	12
326	8
327	14
328	427
329	90
330	48
331	9
340	15
341	11
342	9
344	23
345	4
356	27
357	7
370	6
371	7
372	34
373	9
384	7
387	11
402	7
415	13
416	11
418	14
419	10
421	4
430	22
444	175
445	50
446	11
447	9
449	155
450	46
451	15
461	7
477	204
478	62
479	21
