Mass Spectrum: 2,4-Nonadiyne
Formula: C9H12
CAS: 63621-15-8
Molecular weight: 120
m/z	intensity
15	70
26	15
27	105
29	25
38	24
39	177
41	84
50	60
51	144
52	41
53	57
62	49
63	167
64	30
65	150
66	17
74	24
75	34
76	17
77	366
78	54
79	209
87	15
89	49
90	6
91	95
92	15
103	101
104	43
105	999
106	86
119	103
120	234
121	17
