Mass Spectrum: Dimethyl-(2-thioxo-[1,3,2]dioxaphosphinan-2-yl)-amine
Formula: C5H12NO2PS
CAS: 63638-65-3
Molecular weight: 181
m/z	intensity
33	5
38	8
39	88
40	32
41	415
42	330
43	123
44	999
45	125
46	21
47	89
48	7
49	9
50	10
51	7
55	8
57	25
58	15
59	9
60	28
61	7
63	43
64	14
65	165
71	5
72	5
73	24
74	43
75	13
76	87
77	65
78	10
79	20
80	10
81	7
84	25
85	4
89	5
90	145
91	21
92	95
93	4
97	33
99	6
103	10
105	843
106	49
107	12
108	29
109	17
118	15
119	6
122	10
123	16
124	46
127	8
128	15
130	11
131	9
137	57
138	20
139	8
140	12
146	4
148	254
149	17
179	6
181	651
182	45
183	31
