Mass Spectrum: 2-[2-Furoyl]benzisothiazolinone-1,1-dioxide
Formula: C12H7NO5S
CAS: 63633-79-4
Molecular weight: 277
m/z	intensity
41	10
42	3
43	5
45	8
46	1
47	2
48	10
49	10
50	171
51	37
52	26
53	30
54	13
55	26
56	1
57	1
58	1
61	3
62	11
63	48
64	39
65	10
66	13
67	39
68	0
69	16
70	29
71	1
73	1
74	55
75	51
76	148
77	14
78	2
80	7
81	4
83	45
84	8
86	5
87	1
88	3
90	102
92	26
93	8
95	999
96	54
97	6
98	0
102	36
104	156
105	12
106	1
109	10
110	1
111	1
112	4
113	0
114	1
115	4
116	0
118	2
119	9
120	14
121	1
122	1
128	1
129	6
130	24
131	1
134	1
137	0
140	1
143	1
146	6
150	1
152	6
156	4
157	3
166	4
168	25
169	2
170	1
171	1
178	3
183	11
184	1
185	3
192	5
194	6
199	1
210	2
213	20
214	2
220	0
249	100
250	12
251	6
252	0
256	3
277	79
278	11
279	5
