Mass Spectrum: 3-Isopropylimidazolidine-2,4-dione
Formula: C6H10N2O2
CAS: 63637-90-1
Molecular weight: 142
m/z	intensity
33	0
34	3
35	0
36	0
37	10
38	34
39	272
40	185
41	493
42	621
43	490
44	883
45	26
46	0
51	4
52	12
53	6
54	38
55	44
56	575
57	86
58	184
59	5
60	1
61	0
62	0
63	0
64	0
65	0
66	0
67	1
68	6
69	18
70	673
71	38
72	36
73	108
74	5
75	0
76	0
77	0
79	0
80	0
81	0
82	2
83	10
84	41
85	15
86	21
87	1
88	0
91	0
95	0
96	0
97	1
98	6
99	631
100	99
101	999
102	42
103	3
104	0
105	0
109	0
110	0
111	0
112	0
113	6
114	38
115	2
125	0
126	6
127	871
128	57
129	6
130	0
132	0
133	0
135	0
139	0
140	0
141	3
142	477
143	63
144	7
145	0
