Mass Spectrum: 1,2-Cyclopentanedicarboxylic acid, 4-methylene-, diethyl ester, cis-
Formula: C12H18O4
CAS: 63649-26-3
Molecular weight: 226
m/z	intensity
25	1
26	30
27	236
28	16
29	552
30	17
31	19
33	0
35	0
36	0
37	1
38	7
39	80
40	11
41	60
42	7
43	32
44	5
45	18
46	1
47	99
48	2
49	1
50	18
51	50
52	33
53	58
54	22
55	32
56	2
57	6
58	0
59	1
60	0
62	1
63	5
64	1
65	17
66	11
67	46
68	5
69	8
70	1
71	3
72	0
73	4
74	13
75	12
76	4
77	168
78	369
79	999
80	132
81	62
82	4
83	6
84	1
85	1
86	0
91	2
93	5
94	1
95	6
96	4
97	24
98	2
99	3
100	0
101	0
102	0
103	0
104	0
105	12
106	21
107	62
108	11
109	1
110	0
111	0
122	2
123	52
124	27
125	16
126	1
127	0
128	1
129	2
133	0
134	0
135	1
137	11
138	1
143	2
144	0
147	0
148	0
149	0
150	3
151	32
152	273
153	43
154	3
179	0
180	87
181	161
182	15
183	1
226	11
227	1
