Mass Spectrum: 1-Methyl-1-n-propyl-1-silacyclobutane
Formula: C7H16Si
CAS: 63647-86-9
Molecular weight: 128
m/z	intensity
58	690
59	410
60	90
61	25
70	110
71	95
72	999
73	110
74	40
85	300
86	110
87	85
100	490
101	90
102	30
128	320
129	41
130	13
131	1
