Mass Spectrum: 1,2-Cyclopentanedicarboxylic acid, 4-methylene-, diethyl ester, (E)-
Formula: C12H18O4
CAS: 63649-25-2
Molecular weight: 226
m/z	intensity
25	2
26	28
27	244
28	24
29	619
30	18
31	20
37	1
38	8
39	107
40	18
41	73
42	10
43	42
44	8
45	20
46	0
47	4
48	0
49	1
50	19
51	48
52	39
53	71
54	13
55	37
56	1
57	6
58	0
59	0
60	0
62	1
63	7
64	1
65	18
66	10
67	44
68	12
69	8
70	2
71	3
72	0
73	6
74	3
75	14
76	4
77	188
78	124
79	999
80	241
81	100
82	8
83	3
84	1
85	1
86	0
89	0
90	0
91	4
92	2
93	66
94	7
95	10
96	19
97	21
98	2
99	3
100	0
101	2
102	2
103	0
105	11
106	35
107	121
108	16
109	6
110	0
111	1
112	0
117	0
120	0
121	0
122	1
123	47
124	62
125	35
126	2
127	0
128	0
129	2
133	0
134	2
135	0
137	1
143	2
144	2
147	0
148	0
149	0
150	0
151	8
152	529
153	84
154	8
155	0
179	0
180	15
181	128
182	14
183	1
226	63
227	7
228	0
