Mass Spectrum: 1,1-Di(isopropyl)-1-silacyclobutane
Formula: C9H20Si
CAS: 63647-96-1
Molecular weight: 156
m/z	intensity
53	20
55	100
56	20
57	45
58	400
59	410
60	50
61	15
67	30
69	50
70	45
71	230
72	225
73	100
74	10
83	20
84	35
85	999
86	360
87	140
88	10
97	20
99	30
100	270
101	30
102	10
111	20
113	220
114	80
115	40
128	500
129	80
130	20
156	410
157	62
158	17
159	1
