Mass Spectrum: Betaxolol
Formula: C18H29NO3
CAS: 63659-18-7
Molecular weight: 307
m/z	intensity
41	25
43	41
55	138
56	51
57	41
70	18
72	999
73	51
77	16
86	10
91	29
100	24
102	34
107	53
116	48
120	10
121	13
133	4
147	3
149	9
159	5
161	2
162	2
171	16
172	0
177	1
189	1
192	7
206	0
207	2
231	2
263	62
264	9
274	0
276	0
283	2
292	15
293	2
301	1
306	2
307	3
