Mass Spectrum: Dipyrrolo[1,2-a:-1',2'-d]pyrazine-2,5,7,10-tetraone, octahydro-
Formula: C10H10N2O4
CAS: 63667-06-1
Molecular weight: 222
m/z	intensity
26	14
27	152
28	106
29	10
30	12
31	2
35	0
36	0
38	0
39	6
40	9
41	88
42	27
43	7
44	3
45	0
46	0
48	0
51	0
52	5
53	12
54	114
55	999
56	122
57	7
58	0
60	0
61	19
62	1
63	2
64	0
65	0
66	1
67	3
68	7
69	29
70	2
71	1
72	0
73	1
77	0
78	1
79	0
80	1
81	5
82	61
83	31
84	378
85	17
86	3
87	0
90	3
91	1
92	0
93	0
94	1
95	3
96	28
97	26
98	2
99	0
100	0
101	0
105	0
106	0
108	1
109	4
110	53
111	27
112	4
113	0
115	0
119	0
121	0
122	1
123	2
124	15
125	2
126	0
135	0
136	1
137	5
138	266
139	41
140	4
141	0
149	1
150	0
151	1
152	32
153	2
154	0
161	0
164	1
165	23
166	158
167	130
168	14
169	1
178	0
180	16
181	2
182	0
192	0
193	2
194	141
195	17
196	2
206	0
207	0
220	0
221	3
222	671
223	75
224	11
225	0
