Mass Spectrum: Hexanamide, 2-(acetylamino)-6-amino-N-methyl-, (S)-
Formula: C9H19N3O2
CAS: 6367-10-8
Molecular weight: 201
m/z	intensity
14	2
15	68
16	5
17	3
26	2
27	25
28	112
29	24
30	412
31	21
32	163
33	2
38	1
39	15
40	4
41	49
42	89
43	298
44	143
45	16
46	3
51	2
52	1
53	9
54	15
55	36
56	232
57	42
58	76
59	73
60	31
61	1
65	3
66	3
67	33
68	15
69	22
70	52
71	11
72	67
73	25
74	3
80	5
81	4
82	53
83	67
84	999
85	94
86	83
87	78
88	31
89	2
93	1
94	2
95	3
96	5
97	7
98	30
99	33
100	26
101	29
102	4
107	1
109	1
110	9
111	4
112	35
113	16
114	39
115	15
116	2
121	1
123	4
124	3
125	9
126	21
127	23
128	18
129	65
130	33
131	2
138	1
139	1
140	2
141	55
142	21
143	74
144	20
145	2
149	1
152	3
153	2
154	1
155	1
156	5
157	7
158	10
159	2
163	1
164	1
165	1
166	3
169	2
170	58
171	8
172	33
173	4
183	6
184	9
185	6
186	1
201	36
202	8
203	1
