Mass Spectrum: 3(2H)-Furanone, dihydro-2,2-dimethyl-5-phenyl-
Formula: C12H14O2
CAS: 63678-00-2
Molecular weight: 190
m/z	intensity
33	0
34	0
35	0
36	0
37	1
38	6
39	48
40	9
41	39
42	19
43	101
44	4
45	1
46	0
47	0
48	0
50	26
51	69
52	25
53	6
54	1
55	3
56	5
57	2
58	2
59	6
60	0
61	1
62	4
63	16
64	4
65	10
66	2
67	1
69	13
70	4
71	0
72	0
73	1
74	6
75	7
76	15
77	113
78	121
79	21
80	1
81	0
82	0
83	3
84	5
85	3
86	1
87	1
88	0
89	15
90	10
91	9
92	1
93	0
94	0
95	0
96	0
97	0
98	0
99	0
101	3
102	29
103	156
104	999
105	138
106	7
107	7
108	0
109	0
110	0
111	0
112	0
113	0
114	0
115	1
116	0
117	0
118	0
119	1
120	0
121	0
122	0
123	0
124	0
125	0
126	0
127	0
128	0
129	1
130	0
131	3
132	13
133	3
134	0
135	0
136	0
137	0
138	0
139	0
141	0
145	0
147	2
148	0
149	0
150	0
151	0
152	0
153	0
157	0
159	0
160	0
162	13
163	1
164	0
165	0
171	0
172	0
173	0
174	0
175	0
176	0
177	0
178	0
179	0
180	0
181	0
187	0
188	0
189	1
190	10
191	1
192	0
