Mass Spectrum: Carbamic acid, (trifluoromethyl)-, 1,1-dimethylethyl ester
Formula: C6H10F3NO2
CAS: 63689-57-6
Molecular weight: 185
m/z	intensity
31	100
39	150
41	530
43	120
44	150
57	999
65	70
69	140
112	20
170	20
