Mass Spectrum: Pent-2-ene-1,5-dione, 1-(4-methylphenyl)-3,5-diphenyl-
Formula: C24H20O2
CAS: 63688-28-8
Molecular weight: 340
m/z	intensity
33	1
34	0
37	0
38	4
39	39
40	8
41	13
43	2
44	3
45	0
50	23
51	81
52	8
53	3
54	0
55	1
57	0
60	0
62	7
63	27
65	144
66	7
67	0
68	0
69	1
70	0
71	0
74	6
75	11
77	437
78	29
79	3
80	0
81	0
82	1
83	0
85	0
86	1
87	3
89	48
91	394
92	27
93	2
95	2
96	0
97	0
98	0
99	0
100	0
101	4
102	12
103	13
105	864
106	60
107	4
108	0
109	0
110	1
111	0
113	4
115	124
116	23
119	999
120	79
121	5
122	0
123	0
124	0
125	0
126	3
127	5
128	8
129	14
130	2
131	3
132	0
133	0
134	0
136	0
137	0
138	1
139	4
140	0
141	2
142	1
143	6
144	2
145	0
146	0
147	0
149	0
150	1
151	3
152	5
153	2
154	1
155	0
157	4
158	1
160	2
161	8
163	2
164	2
165	14
166	2
167	0
171	0
176	4
177	2
178	13
179	4
180	0
181	0
185	0
187	0
189	18
190	9
191	25
192	14
193	7
194	1
195	0
196	0
200	1
201	4
202	24
203	17
204	45
205	18
206	6
207	14
208	2
209	0
210	0
213	0
215	3
216	2
217	7
218	59
219	27
220	44
221	83
222	14
223	2
224	0
230	0
231	2
233	5
234	37
235	157
236	29
237	3
238	0
239	0
244	0
245	1
247	4
248	3
249	5
250	1
252	0
261	0
263	7
264	1
265	0
266	0
276	0
277	0
278	0
279	1
280	0
281	0
289	0
293	0
294	1
295	2
296	0
297	0
298	0
305	0
308	1
309	3
310	1
311	1
312	2
313	0
320	1
321	1
323	73
324	20
325	5
326	4
327	0
337	4
338	4
340	104
341	23
342	3
343	0
