Mass Spectrum: (S)-Isopropyl lactate
Formula: C6H12O3
CAS: 63697-00-7
Molecular weight: 132
m/z	intensity
14	3
15	24
16	1
26	6
27	98
28	19
29	33
30	4
31	12
37	1
38	3
39	29
40	6
41	130
42	24
43	526
44	34
45	999
46	22
47	3
55	4
56	7
57	1
58	2
59	39
60	1
63	3
72	1
73	3
75	2
87	1
89	46
90	5
91	8
117	3
