Mass Spectrum: 2-Acetylpyridine-4-phenylthiosemicarbazone
Formula: C14H14N4S
CAS: 63698-06-6
Molecular weight: 270
m/z	intensity
42	108
43	14
44	4
45	36
47	13
49	7
51	670
52	220
53	77
54	29
55	8
57	54
58	5
59	15
60	10
61	5
63	89
65	334
66	61
67	22
69	17
70	6
72	12
74	19
75	23
76	9
77	407
78	635
79	393
80	61
81	2
82	10
84	4
86	2
88	4
90	8
91	37
93	517
94	52
95	4
96	29
97	10
99	5
104	329
106	999
107	8
108	47
109	60
110	3
111	23
112	2
117	12
118	29
119	96
120	126
121	47
122	3
123	57
124	16
127	3
134	690
135	157
136	104
138	18
139	94
141	6
143	8
148	5
150	131
152	129
153	6
154	13
160	24
166	8
176	14
177	35
178	39
182	4
192	389
193	26
194	20
196	2
197	2
209	11
215	4
236	10
237	35
238	5
254	16
255	280
256	12
268	5
269	31
270	339
271	65
272	26
