Mass Spectrum: Octadecanoic acid, phenyl ester
Formula: C24H40O2
CAS: 637-55-8
Molecular weight: 360
m/z	intensity
15	1
17	1
18	3
26	3
27	48
28	6
29	114
30	3
31	1
32	1
37	5
38	9
39	70
40	25
41	253
42	52
43	457
44	15
45	1
47	4
49	1
50	7
51	13
52	3
53	14
54	27
55	293
56	72
57	607
58	27
59	5
60	1
61	2
62	3
63	8
64	5
65	62
66	57
67	71
68	33
69	180
70	53
71	385
72	21
73	2
74	2
75	1
76	1
77	27
78	4
79	13
80	10
81	84
82	30
83	177
84	96
85	246
86	16
87	1
91	9
92	7
93	16
94	999
95	210
96	30
97	143
98	438
99	76
100	6
105	1
107	9
108	4
109	83
110	13
111	89
112	105
113	36
114	3
121	10
122	3
123	48
124	8
125	24
126	9
127	17
128	2
135	8
136	27
137	28
138	5
139	8
140	3
141	9
142	1
149	8
150	1
151	9
152	3
153	6
154	2
155	6
156	1
163	2
165	5
166	2
167	4
168	1
169	3
177	1
179	3
180	1
181	1
183	2
193	3
194	1
195	1
197	1
207	1
209	1
210	1
222	2
223	2
224	1
237	1
238	2
239	1
247	1
248	2
249	7
250	1
251	1
253	1
264	1
265	3
266	7
267	649
268	127
269	12
270	1
360	18
361	5
