Mass Spectrum: 9-Oxabicyclo[6.1.0]non-4-ene
Formula: C8H12O
CAS: 637-90-1
Molecular weight: 124
m/z	intensity
26	10
27	150
28	30
29	70
38	20
39	250
40	50
41	290
42	30
43	20
50	20
51	50
52	20
53	80
54	90
55	100
57	60
63	20
65	80
66	90
67	790
68	140
69	10
70	10
77	80
78	130
79	350
80	999
81	120
82	30
83	30
91	100
93	20
95	80
96	40
105	20
106	50
109	20
124	30
