Mass Spectrum: Acetic acid, hydrazino-, ethyl ester
Formula: C4H10N2O2
CAS: 637-80-9
Molecular weight: 118
m/z	intensity
14	10
15	28
16	6
17	26
18	166
19	8
26	12
27	67
28	147
29	161
30	29
31	43
32	31
35	41
36	379
37	16
38	122
42	41
43	65
44	85
45	999
46	34
60	23
61	3
71	11
75	7
118	149
119	11
