Mass Spectrum: Methanone, phenyl[3-phenyl-1-(phenylmethyl)-2-aziridinyl]-, cis-
Formula: C22H19NO
CAS: 6372-57-2
Molecular weight: 313
m/z	intensity
51	55
65	55
77	346
78	31
89	80
90	85
91	415
92	28
104	62
105	999
106	84
117	39
118	23
152	23
165	49
166	19
167	207
168	32
206	26
208	41
221	58
222	425
223	80
236	13
296	15
297	10
312	26
313	358
314	64
315	9
