Mass Spectrum: Phosphine, bis(1-methylethyl)phenyl-
Formula: C12H19P
CAS: 6372-43-6
Molecular weight: 194
m/z	intensity
26	10
27	83
28	25
29	22
30	1
31	2
32	1
36	1
37	1
38	1
39	32
40	20
41	190
42	22
43	304
44	11
45	20
46	3
47	12
48	3
49	1
50	2
51	7
52	3
53	13
54	21
55	70
56	23
57	29
58	5
59	11
60	0
61	4
62	0
63	3
64	1
65	73
66	9
67	47
68	28
69	52
70	15
71	22
72	10
73	29
74	92
75	75
76	6
77	37
78	32
79	40
80	12
81	154
82	44
83	101
84	6
85	1
86	1
87	1
88	1
89	6
90	1
91	112
92	10
93	7
94	24
95	173
96	76
97	13
98	1
99	1
100	1
101	4
102	2
103	18
104	11
105	121
106	18
107	79
108	335
109	999
110	671
111	47
112	2
113	1
115	5
116	3
117	9
118	5
119	26
120	6
121	36
122	4
123	101
124	21
125	13
126	5
127	1
128	1
129	2
130	1
131	3
132	3
133	17
134	3
135	12
136	4
137	88
138	116
139	29
140	2
141	4
142	2
143	11
144	2
145	2
146	1
147	5
148	3
149	10
150	5
151	171
152	567
153	58
154	5
155	1
157	1
158	1
159	3
160	1
161	0
162	0
163	0
164	0
165	0
167	1
168	6
169	2
170	1
171	3
172	0
173	0
174	1
175	0
177	0
178	0
179	34
180	4
183	1
184	1
185	1
186	1
187	3
188	1
189	0
191	0
192	2
193	8
194	686
195	89
196	6
197	0
