Mass Spectrum: 2,5-Dimethoxy-4-propylamphetamine
Formula: C14H23NO2
CAS: 63779-88-4
Molecular weight: 237
m/z	intensity
44	999
45	36
53	10
65	14
77	20
79	9
91	44
103	14
104	10
105	23
115	8
121	17
122	5
134	7
135	37
137	7
151	23
163	11
165	223
166	20
178	4
179	42
180	4
194	753
195	87
196	5
206	2
221	3
222	2
237	27
238	7
