Mass Spectrum: Trichothec-9-en-8-one, 12,13-epoxy-4-hydroxy-, crotonate
Formula: C19H24O5
CAS: 6379-69-7
Molecular weight: 332
m/z	intensity
39	135
41	512
43	173
53	67
67	55
69	999
77	93
79	144
81	59
91	101
105	59
107	55
109	110
121	59
122	76
123	63
133	63
147	59
149	59
159	67
161	67
174	63
175	122
187	80
202	59
203	101
218	135
233	63
246	105
332	29
333	12
