Mass Spectrum: Diethyl(3-decyn-1-yl)amine
Formula: C14H27N
CAS: 63791-57-1
Molecular weight: 209
m/z	intensity
34	0
38	0
39	17
40	9
41	41
42	31
43	33
44	5
50	0
51	4
52	10
53	12
54	4
55	10
56	21
57	8
58	57
59	1
63	1
64	0
65	7
66	2
67	7
68	1
69	1
70	3
71	2
72	1
77	11
78	2
79	8
80	2
81	4
82	2
83	0
84	3
86	999
87	63
88	1
91	4
92	0
93	3
94	1
95	2
96	0
97	0
105	1
106	1
107	0
108	9
109	5
110	3
111	0
119	0
121	1
122	6
123	1
124	2
134	0
136	4
137	0
138	0
150	1
152	0
162	0
164	0
176	0
178	0
190	0
192	0
194	10
195	1
207	0
208	7
209	8
210	1
219	0
