Mass Spectrum: 2-Butynamide, N-methyl-
Formula: C5H7NO
CAS: 63798-30-1
Molecular weight: 97
m/z	intensity
20	12
22	1
24	4
25	8
26	19
27	26
28	3
29	14
30	158
33	7
34	3
36	17
37	103
38	156
39	365
40	21
41	12
42	24
43	13
44	14
48	11
49	5
50	14
51	22
52	22
53	29
54	55
55	9
56	5
58	23
63	2
64	4
65	4
66	77
67	999
68	102
69	16
70	3
73	1
75	1
76	1
78	4
79	4
80	9
82	4
84	1
91	0
95	2
96	380
97	444
98	24
