Mass Spectrum: Succindialdehyde
Formula: C4H6O2
CAS: 638-37-9
Molecular weight: 86
m/z	intensity
28	89
29	999
30	76
37	24
39	76
40	37
42	73
43	305
44	123
53	12
55	32
56	13
57	231
58	384
69	1
72	3
85	2
