Mass Spectrum: Succinamic acid
Formula: C4H7NO3
CAS: 638-32-4
Molecular weight: 117
m/z	intensity
12	2
13	2
14	8
15	9
16	14
17	3
18	9
24	2
25	9
26	79
27	176
28	197
29	100
30	41
31	14
36	2
37	4
38	6
39	7
40	7
41	15
42	47
43	47
44	525
45	211
46	25
47	10
50	2
51	9
52	17
53	27
54	50
55	391
56	161
57	21
58	5
59	1
60	4
62	5
69	1
70	7
71	26
72	98
73	412
74	999
75	35
76	5
77	1
80	3
81	3
82	15
83	6
84	1
89	1
97	2
98	3
99	182
100	83
101	209
102	10
103	2
116	1
117	117
118	9
119	1
