Mass Spectrum: S-Carboxymethyl-L-cysteine
Formula: C5H9NO4S
CAS: 638-23-3
Molecular weight: 179
m/z	intensity
12	11
13	18
14	66
15	227
16	35
17	57
18	253
19	8
24	3
25	9
26	48
27	153
28	385
29	74
30	130
31	45
32	17
33	42
34	34
35	20
36	7
37	7
38	26
39	46
40	106
41	288
42	999
43	265
44	389
45	629
46	718
47	902
48	87
49	39
50	6
51	6
52	9
53	11
54	40
55	78
56	18
57	17
58	32
59	151
60	112
61	415
62	20
63	25
64	20
65	4
66	6
67	15
68	101
69	56
70	43
71	11
72	34
73	73
74	319
75	51
76	10
77	24
78	3
79	3
80	4
81	5
82	6
83	8
84	9
85	8
86	40
87	138
88	364
89	25
90	18
91	6
92	402
93	13
94	19
95	7
96	4
97	5
98	11
99	6
100	19
101	5
102	9
103	10
104	2
105	8
106	12
107	16
108	5
109	3
110	3
111	4
112	3
113	16
114	8
115	39
116	309
117	35
118	23
119	5
120	2
121	1
126	3
127	1
128	4
129	3
131	1
132	1
133	9
134	19
135	3
136	2
137	2
138	2
139	2
141	2
142	1
143	8
144	6
149	1
159	4
161	457
162	29
163	23
164	2
179	2
