Mass Spectrum: Acetamide, N,N'-carbonylbis-
Formula: C5H8N2O3
CAS: 638-20-0
Molecular weight: 144
m/z	intensity
32	101
41	45
42	88
43	999
44	105
55	36
57	28
59	127
60	82
61	32
69	28
70	34
87	126
102	339
103	71
129	237
130	12
131	3
135	3
137	3
144	23
145	8
