Mass Spectrum: Bis(2-(2-chloroethoxy)ethyl) ether
Formula: C8H16Cl2O3
CAS: 638-56-2
Molecular weight: 230
m/z	intensity
12	1
14	3
15	31
16	6
17	1
18	3
25	1
26	15
27	298
28	81
29	50
30	7
31	62
32	2
35	2
36	9
38	3
39	2
41	9
42	9
43	168
44	48
45	565
46	13
47	1
48	1
49	17
50	5
51	32
52	2
55	1
56	2
57	14
58	13
59	163
60	7
61	4
62	27
63	999
64	32
65	306
66	8
70	14
71	11
72	30
73	79
74	3
75	6
77	2
78	1
79	3
81	1
86	5
87	33
88	7
89	4
93	61
94	2
95	21
96	1
97	1
99	2
100	2
101	28
102	3
103	9
104	1
105	10
106	176
107	510
108	79
109	162
110	7
114	2
115	14
116	1
117	8
121	2
123	2
137	164
138	10
139	57
140	3
141	1
159	1
181	4
183	1
