Mass Spectrum: Acetamide, N,N'-(dithiodi-2,1-ethanediyl)bis-
Formula: C8H16N2O2S2
CAS: 638-44-8
Molecular weight: 236
m/z	intensity
33	6
34	9
35	5
36	1
38	1
39	4
40	17
41	33
43	980
44	647
45	60
46	28
47	24
48	10
49	1
50	1
51	1
52	1
54	4
55	4
56	7
57	5
58	23
59	75
60	433
61	19
62	3
64	17
65	2
66	2
67	0
68	1
69	1
70	4
72	158
73	14
74	22
76	190
77	11
78	17
79	4
80	1
81	1
82	0
84	22
86	999
87	56
88	6
90	4
91	6
92	3
93	2
94	0
95	0
96	0
98	0
99	0
100	1
101	1
102	2
103	4
104	1
105	2
106	2
107	2
108	7
109	15
110	1
111	1
112	0
113	0
114	0
117	86
118	251
119	121
120	35
121	6
122	2
123	0
124	0
130	0
131	1
132	0
133	0
134	1
135	0
136	0
140	0
145	3
146	0
147	0
148	0
149	0
151	8
152	0
153	0
155	0
157	0
161	0
162	1
163	0
164	0
165	0
171	0
177	21
179	3
182	0
183	1
184	0
185	0
203	2
204	0
205	0
236	15
237	3
238	1
239	0
