Mass Spectrum: Phenylphosphine
Formula: C6H7P
CAS: 638-21-1
Molecular weight: 110
m/z	intensity
26	23
27	29
29	0
31	10
33	3
34	1
36	2
37	20
38	24
39	125
40	10
41	16
42	0
43	1
44	9
45	10
46	0
47	0
48	1
49	10
50	67
51	118
52	22
53	16
54	23
55	33
56	84
57	149
58	9
59	1
60	1
61	8
62	14
63	37
64	8
65	88
66	58
67	5
68	32
69	45
70	10
71	6
72	0
73	6
74	20
75	12
76	5
77	50
78	90
79	20
80	65
81	87
82	34
83	117
84	28
85	1
91	0
92	3
93	2
94	1
95	6
96	0
103	7
104	15
105	6
106	23
107	458
108	999
109	221
110	916
111	62
112	4
113	0
