Mass Spectrum: Formamide, N-9-oxabicyclo[3.3.1]non-6-en-2-yl-, endo-
Formula: C9H13NO2
CAS: 63827-18-9
Molecular weight: 167
m/z	intensity
26	23
27	270
28	357
29	182
30	174
31	28
37	5
38	21
39	365
40	77
41	497
42	261
43	560
44	367
45	17
46	92
47	2
49	1
50	26
51	72
52	43
53	195
54	108
55	104
56	139
57	34
58	28
59	33
60	4
61	1
62	5
63	18
64	5
65	123
66	107
67	999
68	584
69	61
70	51
71	446
72	755
73	35
74	9
75	2
76	2
77	104
78	99
79	110
80	105
81	394
82	80
83	212
84	45
85	18
86	8
87	28
88	1
89	4
90	1
91	74
92	27
93	106
94	130
95	83
96	400
97	31
98	12
99	3
100	5
101	1
102	2
103	11
104	150
105	22
106	7
107	27
108	18
109	14
110	30
111	40
112	3
113	0
118	1
119	1
120	13
121	42
122	537
123	79
124	23
125	3
126	0
133	1
135	1
136	1
138	70
139	73
141	7
142	1
143	0
148	1
149	83
150	11
151	0
165	1
166	2
167	246
168	60
169	5
170	0
