Mass Spectrum: 7-Azatricyclo-[4.4.0.0(3,8)]decane,7-methyl-2-oxo
Formula: C9H15NO2
CAS: 63827-32-7
Molecular weight: 169
m/z	intensity
26	23
27	158
28	132
29	165
30	52
31	54
36	15
38	35
39	177
40	47
41	256
42	562
43	157
44	439
45	40
46	14
47	14
48	14
50	24
51	43
52	33
53	82
54	67
55	212
56	123
57	544
58	81
59	29
60	21
61	15
63	14
64	24
65	37
66	40
67	122
68	99
69	119
70	211
71	67
72	54
73	35
74	18
75	13
76	20
77	56
78	38
79	43
80	66
81	269
82	721
83	217
84	420
85	72
86	29
87	15
88	17
89	18
90	18
91	69
92	26
93	52
94	999
95	215
96	290
97	129
98	164
99	239
100	31
103	19
104	21
105	26
106	25
107	35
108	72
109	51
110	70
111	41
112	274
113	59
114	16
115	30
116	13
117	29
118	21
119	23
120	37
121	15
122	48
123	44
124	47
125	45
126	75
127	22
128	37
129	19
130	28
131	39
132	32
133	33
134	22
135	22
136	35
137	29
138	662
139	29
140	50
141	21
151	31
152	39
153	4
154	22
168	47
169	846
170	100
171	18
