Mass Spectrum: 1H-Indene-1-methanol, .alpha.-methyl-, acetate
Formula: C13H14O2
CAS: 63839-85-0
Molecular weight: 202
m/z	intensity
42	50
43	999
44	40
63	30
89	50
115	240
116	90
128	75
139	20
141	370
142	720
143	100
158	10
202	2
