Mass Spectrum: 4-Nonene, 2,3,3-trimethyl-, (E)-
Formula: C12H24
CAS: 63830-67-1
Molecular weight: 168
m/z	intensity
27	240
29	170
39	150
41	890
43	350
53	130
55	440
57	100
67	300
69	999
70	90
83	190
95	90
125	200
168	30
