Mass Spectrum: 4-Nonene, 3-methyl-, (Z)-
Formula: C10H20
CAS: 63830-69-3
Molecular weight: 140
m/z	intensity
27	230
29	270
39	190
41	580
43	160
53	100
55	999
56	200
57	140
67	110
69	610
70	340
71	110
83	190
84	60
111	90
140	30
