Mass Spectrum: Bicyclo[4.2.0]octa-1,3,5-triene-7,8-dione
Formula: C8H4O2
CAS: 6383-11-5
Molecular weight: 132
m/z	intensity
25	6
26	11
27	3
36	7
37	73
38	114
39	27
48	3
49	68
50	545
51	44
52	30
53	23
60	3
61	22
62	14
66	0
72	0
73	47
74	197
75	108
76	999
77	94
78	0
84	1
85	9
86	6
87	0
104	796
105	60
106	4
132	152
133	14
