Mass Spectrum: 4-Octene, 2,3,6,7-tetramethyl-
Formula: C12H24
CAS: 63830-66-0
Molecular weight: 168
m/z	intensity
27	80
29	70
39	60
41	240
43	240
55	520
57	250
67	70
69	999
70	220
71	90
83	220
84	110
97	70
98	40
109	30
125	90
168	80
