Mass Spectrum: 4-Nonene, 2,3,3-trimethyl-, (Z)-
Formula: C12H24
CAS: 63830-68-2
Molecular weight: 168
m/z	intensity
27	100
29	80
39	70
41	310
43	170
53	40
55	270
56	100
57	110
67	90
69	999
70	100
83	180
95	40
97	30
111	40
125	190
168	20
