Mass Spectrum: 9H-Fluorene-9-methanol, acetate
Formula: C16H14O2
CAS: 63839-86-1
Molecular weight: 238
m/z	intensity
39	40
41	60
43	999
44	40
45	60
59	40
66	40
136	40
152	40
163	40
164	40
165	350
166	70
178	730
179	150
180	60
238	40
