Mass Spectrum: 1-Acetoxy-1-(9-fluorenyl)ethane
Formula: C17H16O2
CAS: 63839-88-3
Molecular weight: 252
m/z	intensity
43	999
87	30
139	40
163	130
164	70
165	990
166	210
179	90
180	50
189	40
191	60
192	900
193	210
194	50
209	70
210	10
252	70
