Mass Spectrum: Cholest-7-en-3-ol, 4,4-dimethyl-, (3.beta.,5.alpha.)-
Formula: C29H50O
CAS: 6384-28-7
Molecular weight: 414
m/z	intensity
17	40
18	22
26	50
27	90
28	45
29	210
39	80
41	630
42	50
43	999
44	60
53	80
55	740
56	80
57	670
58	30
59	40
65	30
67	310
68	60
69	680
70	60
71	350
72	40
73	20
77	150
78	80
79	290
80	80
81	600
82	10
83	360
84	40
85	90
91	490
92	130
93	500
94	130
95	130
96	160
97	220
98	40
99	30
103	40
104	30
105	800
106	200
107	510
108	120
109	460
110	70
111	130
112	20
113	20
115	50
116	50
117	160
118	70
119	520
120	170
121	450
122	230
123	350
124	60
125	90
127	50
128	40
129	100
130	40
131	280
132	70
133	460
134	300
135	920
136	280
137	140
138	50
139	70
141	30
142	30
143	120
144	70
145	330
146	120
147	660
148	160
149	390
150	60
151	60
152	70
153	50
155	30
156	40
157	150
158	50
159	270
160	100
161	620
162	110
163	130
164	20
165	10
166	20
167	20
169	40
170	180
171	160
172	90
173	300
174	70
175	180
176	40
177	80
178	20
179	80
180	30
181	30
183	30
185	110
186	50
187	30
188	50
189	160
190	60
191	60
193	50
195	60
197	120
198	30
199	120
200	30
201	100
202	30
203	60
205	70
206	60
207	30
211	40
213	90
214	30
215	60
217	30
218	40
227	70
228	30
229	100
230	30
231	30
232	30
233	30
239	30
241	200
242	80
243	60
245	70
246	50
247	210
248	50
253	70
255	60
256	50
257	160
258	40
259	200
260	200
261	150
262	70
269	50
270	20
271	20
273	20
274	160
275	50
281	30
283	560
284	140
285	30
287	60
299	50
300	20
301	90
302	30
311	110
312	60
313	80
314	80
315	410
316	140
317	60
318	20
327	30
329	20
331	20
353	150
354	50
355	20
381	250
382	80
383	20
395	40
396	200
397	90
398	20
399	180
400	60
412	50
414	700
415	220
416	30
