Mass Spectrum: N-Methyl-D-aspartic acid
Formula: C5H9NO4
CAS: 6384-92-5
Molecular weight: 147
m/z	intensity
42	999
43	148
44	232
45	252
47	8
53	7
54	33
55	80
56	153
57	86
58	96
60	148
70	53
72	9
87	38
88	103
100	23
101	31
102	690
103	39
129	31
