Mass Spectrum: 2H-1,2-Oxazine, 3,6-dihydro-6-methyl-
Formula: C5H9NO
CAS: 63842-71-7
Molecular weight: 99
m/z	intensity
36	1
37	13
38	28
39	197
40	77
41	253
42	132
43	216
44	16
45	20
46	36
49	2
50	16
51	23
52	31
53	260
54	81
55	120
56	86
57	47
58	18
59	21
62	2
63	4
64	0
65	50
66	30
67	999
68	607
69	42
70	174
71	21
72	5
78	2
79	1
80	62
81	20
82	166
83	12
84	62
85	2
96	0
98	13
99	301
100	17
