Mass Spectrum: L-Aspartic acid, dimethyl ester
Formula: C6H11NO4
CAS: 6384-18-5
Molecular weight: 161
m/z	intensity
40	12
41	37
42	106
43	286
44	44
45	7
55	11
56	5
57	8
58	6
59	111
60	243
61	6
68	14
69	6
70	498
71	23
74	27
86	5
88	361
89	13
100	15
101	47
102	999
103	50
104	5
113	9
128	9
129	21
130	6
159	5
