Mass Spectrum: N-Methoxy-2-carbaminoaziridine
Formula: C4H8N2O2
CAS: 63859-00-7
Molecular weight: 116
m/z	intensity
15	294
16	51
17	11
27	212
28	294
29	141
30	567
31	100
32	51
33	9
40	121
41	455
42	475
43	161
44	636
45	91
46	21
54	71
55	253
56	23
58	111
59	31
67	20
68	71
69	19
72	20
73	81
74	19
85	91
86	20
99	999
100	81
101	22
116	31
117	2
