Mass Spectrum: N-Methoxy-2-carbomethoxy-2-carbamoylaziridine
Formula: C6H10N2O4
CAS: 63859-02-9
Molecular weight: 174
m/z	intensity
40	197
41	445
42	235
43	161
44	555
45	999
46	37
54	161
55	268
56	54
58	375
59	465
60	36
68	393
69	143
70	54
71	125
72	54
73	11
98	89
99	340
100	72
110	11
111	232
112	54
113	72
114	13
126	410
127	36
128	9
142	143
143	36
144	9
157	570
158	54
159	27
160	7
175	3
