Mass Spectrum: N-Chloro-2-carbomethoxyaziridine
Formula: C4H6ClNO2
CAS: 63858-99-1
Molecular weight: 135
m/z	intensity
26	34
27	204
28	25
29	318
30	91
31	9
32	57
33	34
36	136
38	45
40	136
41	999
42	773
43	341
44	204
45	837
46	38
47	11
55	159
56	45
57	204
58	91
59	455
60	34
61	9
69	341
70	91
71	19
100	91
101	21
135	34
136	2
137	12
138	1
