Mass Spectrum: 6-Methoxypiperidin-2-one
Formula: C6H11NO2
CAS: 63853-82-7
Molecular weight: 129
m/z	intensity
12	2
13	5
14	37
15	295
16	13
17	29
18	110
19	1
25	3
26	55
27	289
28	508
29	222
30	131
31	49
32	9
33	75
37	12
38	32
39	207
40	57
41	259
42	475
43	264
44	91
45	30
46	15
50	7
51	10
52	11
53	22
55	901
56	53
57	22
58	242
59	26
60	552
61	15
62	2
64	1
66	2
67	5
68	47
69	38
70	109
71	21
73	128
74	10
75	3
78	2
80	1
81	1
82	2
83	3
84	11
85	5
86	17
87	10
96	44
98	999
99	63
100	6
101	101
102	6
112	2
113	3
114	41
115	8
128	23
129	90
130	17
