Mass Spectrum: N-Methoxy-aziridine-2,2-dicarboxylic acid, ethyl ester
Formula: C7H11NO5
CAS: 63859-04-1
Molecular weight: 189
m/z	intensity
53	64
54	555
55	255
56	128
57	128
58	340
59	234
60	128
61	21
68	640
69	660
70	170
71	255
72	192
73	21
84	128
85	382
86	38
99	999
100	107
101	22
112	382
113	490
114	107
115	11
126	298
127	128
128	13
140	128
141	12
143	426
144	85
145	12
171	320
172	43
173	9
