Mass Spectrum: 2,5-Methanopyrano[3,2-b]pyrrole, 8-chlorohexahydro-1-methyl-, (2.alpha.,3a.beta.,5.alpha.,7a.beta.,8R*)-
Formula: C9H14ClNO
CAS: 63865-32-7
Molecular weight: 187
m/z	intensity
27	196
28	60
29	126
30	70
31	46
39	252
40	39
41	297
42	528
43	97
44	83
45	57
49	54
51	73
53	163
54	151
55	205
56	113
57	178
58	39
65	89
66	51
67	256
68	165
69	122
70	167
71	73
75	53
77	78
79	100
80	218
81	762
82	467
83	398
84	153
91	83
93	88
94	999
95	248
96	187
97	80
98	83
99	95
106	38
107	51
108	241
109	51
110	71
112	105
122	57
124	99
125	41
128	53
129	48
130	53
131	41
134	63
137	57
138	597
139	78
142	81
144	55
149	121
152	495
153	75
158	190
160	54
186	58
187	343
188	61
189	113
