Mass Spectrum: 4-Octene, 2,2,3,7-tetramethyl-, [S-(E)]-
Formula: C12H24
CAS: 63865-57-6
Molecular weight: 168
m/z	intensity
27	70
29	140
39	50
41	320
43	130
55	390
57	999
69	430
83	50
84	50
95	70
97	90
110	150
111	100
112	70
168	30
