Mass Spectrum: 3-Methyl-4-oximido-2-pyrazolin-5-one
Formula: C4H5N3O2
CAS: 6386-15-8
Molecular weight: 127
m/z	intensity
26	350
27	650
28	650
29	360
30	120
37	90
38	170
39	350
40	180
41	130
42	230
43	180
44	260
51	180
52	700
53	999
54	260
55	80
56	200
66	70
67	400
68	70
69	60
70	50
71	30
81	100
82	640
83	220
110	70
127	930
