Mass Spectrum: Silane, 1,7-octadiyne-1,8-diylbis[trimethyl-
Formula: C14H26Si2
CAS: 63873-32-5
Molecular weight: 250
m/z	intensity
25	0
26	0
27	3
29	10
30	0
31	9
33	0
38	0
39	4
40	0
41	1
42	3
43	81
44	13
45	108
46	6
47	3
48	0
50	0
51	1
52	0
53	26
54	6
55	35
56	2
57	8
58	14
59	120
60	8
61	4
62	0
63	1
64	0
65	2
66	9
67	33
68	11
69	32
70	7
71	8
73	999
74	89
75	39
76	1
77	4
78	7
79	13
80	5
81	53
82	12
83	76
84	8
85	16
86	2
87	3
88	5
89	2
90	0
91	4
92	2
93	19
94	8
95	39
96	56
97	51
98	7
99	7
100	0
101	2
102	15
103	5
104	1
105	8
106	2
107	13
108	3
109	47
110	248
111	26
112	2
113	3
114	0
115	6
116	4
117	23
118	3
119	12
120	3
121	21
122	4
123	20
124	3
125	6
126	1
127	3
128	0
129	7
130	2
131	26
132	5
133	29
134	9
135	35
136	7
137	111
138	57
139	21
140	4
141	16
142	3
143	5
144	0
145	43
146	9
147	185
148	30
149	27
150	4
151	5
152	1
153	2
154	1
155	73
156	13
157	6
158	1
159	24
160	1
161	344
162	597
163	114
164	30
165	7
166	1
167	1
168	0
169	11
170	2
171	1
172	0
173	3
174	1
175	21
176	42
177	27
178	7
179	6
180	1
181	1
182	0
183	0
185	0
187	0
189	1
190	1
191	11
192	2
193	8
194	2
195	1
196	0
199	0
201	0
203	0
204	0
205	6
206	1
207	12
208	3
209	1
210	0
215	0
217	1
218	0
219	3
220	1
221	0
222	1
223	0
230	0
231	1
232	0
233	1
234	0
235	139
236	33
237	13
238	2
239	0
250	1
251	0
252	0
