Mass Spectrum: Silabenzene,1-methyl-
Formula: C6H8Si
CAS: 63878-65-9
Molecular weight: 108
m/z	intensity
26	435
39	358
43	431
53	350
55	187
67	512
93	999
107	117
108	624
