Mass Spectrum: 2-Butenoic acid, 2-(acetylamino)-, ethyl ester
Formula: C8H13NO3
CAS: 63888-49-3
Molecular weight: 171
m/z	intensity
25	1
26	34
27	169
28	182
29	166
30	23
31	10
37	3
38	8
39	32
40	9
41	19
42	39
43	999
44	28
45	24
46	0
47	8
51	4
52	26
53	15
54	519
55	494
56	441
57	69
58	2
59	1
61	4
65	1
66	1
67	3
68	12
69	2
70	1
71	1
72	7
73	3
74	0
81	0
82	11
83	390
84	19
85	5
86	1
95	1
96	3
97	33
98	45
99	6
100	932
101	52
102	5
110	32
121	4
122	0
123	0
124	6
125	319
126	137
127	12
128	213
129	501
130	34
131	2
137	1
141	1
142	1
145	1
153	4
156	13
171	139
172	12
