Mass Spectrum: Allyl dithioisobutyrate
Formula: C7H12S2
CAS: 63881-54-9
Molecular weight: 160
m/z	intensity
39	219
41	525
43	349
45	279
53	177
55	109
59	89
71	120
73	158
74	39
76	109
77	39
85	110
86	120
87	999
88	29
117	20
145	298
160	208
