Mass Spectrum: 2-Naphthalenemethanol, 2,3,4,4a,5,6,7,8-octahydro-.alpha.,.alpha.,4a,8-tetramethyl-, [2R-(2.alpha.,4a.beta.,8.beta.)]-
Formula: C15H26O
CAS: 63891-61-2
Molecular weight: 222
m/z	intensity
27	11
28	1
29	1
31	65
32	1
33	1
39	53
40	1
41	177
42	1
43	158
44	1
51	20
53	59
54	4
55	104
56	15
57	1
58	8
59	999
60	28
65	43
66	9
67	147
68	27
69	51
71	7
77	89
78	17
79	115
80	34
81	439
82	97
83	30
91	151
92	37
93	301
94	81
95	98
96	47
97	28
105	95
106	22
107	147
108	359
109	128
110	19
115	13
117	14
119	49
120	21
121	162
122	89
123	78
124	5
129	9
133	58
134	2
135	91
136	25
147	43
148	20
149	990
150	107
161	40
162	17
163	20
164	377
165	49
175	9
189	49
204	51
