Mass Spectrum: Solanocapsin
Formula: C27H46N2O2
CAS: 639-86-1
Molecular weight: 430
m/z	intensity
41	268
42	110
43	396
44	128
45	16
47	15
48	2
49	5
50	1
51	2
53	48
54	29
55	281
56	663
57	117
58	22
59	48
60	5
65	18
66	2
67	142
68	84
69	198
70	999
71	103
72	16
73	3
74	1
77	49
78	3
79	146
80	44
81	168
82	291
83	101
84	445
85	6
86	67
87	3
88	4
91	97
92	4
93	120
94	68
95	141
96	74
97	36
98	38
99	1
100	30
101	12
102	1
103	6
105	88
106	24
107	84
108	46
109	51
110	73
111	128
112	152
113	70
114	31
115	24
117	28
118	6
119	40
120	17
121	37
122	33
123	19
124	57
125	61
126	13
127	2
128	19
129	10
130	379
131	48
132	22
133	36
134	17
135	25
136	29
137	12
138	31
139	98
140	36
142	257
143	38
144	7
145	26
146	6
147	29
148	13
149	14
150	28
151	18
152	12
153	3
154	17
156	105
157	420
158	44
159	25
160	9
161	23
162	14
163	7
164	17
165	7
166	4
169	9
170	8
171	22
173	15
174	6
175	8
176	8
177	7
178	17
179	22
180	7
182	7
183	4
184	3
185	8
186	1
187	9
188	5
189	4
190	6
192	1
194	1
196	31
197	18
198	3
199	6
201	9
202	3
203	1
204	6
206	1
213	3
214	1
215	12
216	14
217	6
218	2
229	3
230	3
231	1
232	14
233	35
234	12
241	1
244	3
245	1
246	3
249	4
255	14
256	4
257	3
258	3
269	4
272	6
273	3
274	4
275	1
284	6
285	3
286	4
287	1
292	1
297	4
299	2
300	6
301	117
302	32
303	5
313	8
314	4
316	2
319	18
320	4
328	73
329	35
330	7
341	1
343	19
344	3
345	2
347	3
356	3
358	1
359	25
360	4
374	1
387	4
388	2
397	4
401	1
402	4
410	3
411	4
412	118
413	47
414	9
415	7
416	1
428	3
429	8
430	43
431	21
432	4
