Mass Spectrum: Spiro[bicyclo[3.1.0]hexane-6,3'(2'H)-as-indacen]-2-one, decahydro-6'-hydroxy-1,4,5'a-trimethyl-, acetate
Formula: C22H32O3
CAS: 6390-15-4
Molecular weight: 344
m/z	intensity
111	999
117	108
119	127
131	191
132	170
133	275
145	172
146	172
147	189
148	85
159	339
174	658
234	522
242	6
284	6
302	6
344	18
