Mass Spectrum: 2-Pyrrolidinone, 1-(3,7,11-trimethyldodecyl)-
Formula: C19H37NO
CAS: 63913-37-1
Molecular weight: 295
m/z	intensity
39	20
41	170
42	50
43	180
44	30
53	10
54	10
55	150
56	70
57	110
58	10
67	10
68	20
69	140
70	170
71	70
81	10
82	10
83	50
84	30
85	30
86	300
87	20
97	30
98	810
99	999
100	90
111	10
112	220
113	80
138	9
139	3
140	38
141	26
142	3
149	5
152	1
154	25
155	6
168	13
169	7
182	33
183	6
210	18
211	6
224	20
225	5
238	7
239	2
252	12
253	3
278	8
279	1
280	31
281	9
282	1
294	7
295	38
296	12
297	5
