Mass Spectrum: 2-Pyrrolidinone, 1-[3,7-dimethyl-9-(2,2,6-trimethylcyclohexyl)nonyl]-
Formula: C24H45NO
CAS: 63913-39-3
Molecular weight: 363
m/z	intensity
39	40
41	200
42	70
43	120
44	50
53	20
54	20
55	230
56	70
57	60
68	60
69	40
70	200
71	170
72	30
81	50
82	40
83	50
84	10
86	150
95	30
96	10
97	30
98	800
99	999
100	80
109	20
111	20
112	210
113	60
125	10
126	10
136	1
137	5
138	50
139	7
140	65
141	25
142	3
150	2
151	2
152	3
153	2
154	31
155	5
165	1
166	2
167	6
168	14
169	9
170	1
180	8
181	3
182	34
183	7
208	4
209	2
210	16
211	2
222	8
223	4
224	40
225	19
226	4
236	2
237	3
238	25
239	8
240	3
250	5
251	2
252	6
253	1
266	1
268	3
269	1
278	2
279	1
280	5
281	2
292	5
293	3
294	13
295	4
306	3
307	8
308	4
320	5
321	1
346	4
348	33
349	10
350	3
362	1
363	46
364	15
365	4
