Mass Spectrum: Convolidine
Formula: C15H19NO4
CAS: 63911-32-0
Molecular weight: 277
m/z	intensity
33	0
34	0
36	2
37	1
38	4
39	35
40	19
41	90
42	26
43	28
44	21
45	1
50	8
51	23
52	45
53	28
54	21
55	39
56	23
57	3
58	0
59	0
60	0
61	0
62	3
63	10
64	5
65	39
66	7
67	122
68	156
69	50
70	12
71	1
72	0
73	0
74	0
75	0
76	0
77	23
78	4
79	18
80	214
81	83
82	61
83	26
84	13
85	0
87	0
89	0
91	14
92	8
93	23
94	20
95	7
96	4
97	8
98	2
99	0
101	0
103	0
104	0
105	1
106	3
107	4
108	51
109	66
110	999
111	75
112	4
113	0
115	0
119	1
120	2
121	3
122	3
123	31
124	25
125	7
126	32
127	3
128	0
129	0
131	0
133	0
135	0
136	3
137	1
139	5
140	2
141	0
149	1
151	91
152	9
153	34
154	2
155	0
160	0
163	0
165	0
166	0
168	311
169	25
170	3
171	0
175	0
182	1
183	0
192	0
247	0
276	1
277	32
278	5
279	0
