Mass Spectrum: 3,4-Heptadien-2-one, 3-cyclopentyl-6-methyl-
Formula: C13H20O
CAS: 63922-50-9
Molecular weight: 192
m/z	intensity
41	250
43	999
55	150
67	150
69	150
77	140
79	200
81	180
91	180
93	300
105	100
107	210
109	110
121	100
149	300
177	250
192	210
