Mass Spectrum: 5-Hepten-3-yn-2-one, 6-methyl-5-(1-methylethyl)-
Formula: C11H16O
CAS: 63922-42-9
Molecular weight: 164
m/z	intensity
41	360
43	999
51	180
53	160
63	120
65	130
77	330
79	270
91	250
105	180
107	220
121	140
149	960
150	100
164	450
