Mass Spectrum: 3-Octyne-2,5-dione, 6,6,7-trimethyl-
Formula: C11H16O2
CAS: 63922-61-2
Molecular weight: 180
m/z	intensity
41	230
43	999
53	120
57	140
85	680
96	999
110	110
138	90
165	20
180	10
