Mass Spectrum: 3,4-Heptadien-2-one, 3-cyclopentyl-6-hydroxy-6-methyl-5-(1-methylethyl)-
Formula: C16H26O2
CAS: 63922-48-5
Molecular weight: 250
m/z	intensity
27	36
28	5
29	38
31	57
38	2
39	50
40	7
41	184
42	9
43	999
44	23
45	8
50	4
51	21
52	8
53	38
54	3
55	74
56	5
57	18
58	6
59	387
60	12
63	10
64	3
65	33
66	9
67	85
68	8
69	84
70	5
71	10
75	2
76	2
77	63
78	16
79	89
80	16
81	80
82	11
83	25
84	2
85	4
86	2
89	4
90	2
91	104
92	22
93	136
94	16
95	44
96	9
97	16
98	3
99	2
102	1
103	11
104	5
105	92
106	22
107	137
108	29
109	57
110	7
111	7
115	12
116	7
117	17
118	5
119	44
120	11
121	85
122	23
123	29
124	26
125	18
126	2
127	2
128	5
129	6
130	3
131	21
132	6
133	63
134	13
135	54
136	57
137	25
138	4
139	3
143	4
144	2
145	10
146	5
147	43
148	13
149	314
150	60
151	46
152	5
153	8
159	29
160	5
161	8
162	3
163	21
164	15
165	9
167	4
173	3
174	5
175	35
176	5
177	280
178	37
179	4
181	2
187	5
189	20
190	27
191	14
192	529
193	85
194	7
207	135
208	21
217	27
218	4
230	3
232	5
233	7
235	150
236	25
237	3
250	2
