Mass Spectrum: 3-Butyn-2-one, 4-[3,3-dimethyl-2-(1-methylethyl)oxiranyl]-
Formula: C11H16O2
CAS: 63922-43-0
Molecular weight: 180
m/z	intensity
26	2
27	40
28	11
29	10
31	7
37	2
38	7
39	81
40	11
41	68
42	16
43	289
44	23
45	3
50	13
51	43
52	19
53	62
54	6
55	12
57	3
58	3
59	37
61	3
62	10
63	27
64	10
65	23
66	9
67	23
68	4
69	8
70	5
71	54
72	3
74	4
75	35
76	2
77	221
78	30
79	105
80	17
81	10
82	6
91	26
92	8
93	16
94	6
95	29
96	6
97	3
103	3
104	2
105	16
106	4
107	999
108	84
109	115
110	73
111	8
119	4
120	2
121	9
122	74
123	56
124	6
125	7
137	51
138	76
139	9
140	3
147	5
151	17
152	2
163	3
165	122
166	15
167	2
179	2
180	6
