Mass Spectrum: 1,4-Dioxane, 2-[3-[3,3-dimethyl-2-(1-methylethyl)oxiranyl]-1-methylene-2-propynyl]-
Formula: C15H22O3
CAS: 63922-60-1
Molecular weight: 250
m/z	intensity
41	180
43	480
59	100
77	120
79	100
87	999
91	150
105	140
119	120
121	100
147	360
149	160
163	100
177	100
179	60
191	100
207	100
219	140
235	10
