Mass Spectrum: 2,6-Heptanedione, 3-methyl-3-(1-methylethyl)-
Formula: C11H20O2
CAS: 63922-59-8
Molecular weight: 184
m/z	intensity
27	45
28	8
29	32
31	4
39	39
40	6
41	140
42	14
43	999
44	22
45	11
51	5
52	3
53	22
54	5
55	236
56	17
57	40
58	101
59	20
65	4
67	26
68	3
69	86
70	12
71	93
72	86
73	5
77	4
79	6
81	61
82	19
83	566
84	97
85	89
86	8
95	15
97	18
98	5
99	45
100	71
101	11
109	28
110	3
111	7
113	3
114	22
115	3
122	11
123	450
124	249
125	25
126	5
127	22
140	3
141	72
142	30
143	3
151	1
166	1
185	6
