Mass Spectrum: 1,16-Cyclocorynan-17-oic acid, 19,20-didehydro-, methyl ester, (16S,19E)-
Formula: C20H22N2O2
CAS: 6393-66-4
Molecular weight: 322
m/z	intensity
60	242
61	185
62	14
63	42
65	28
67	42
68	28
69	100
70	85
71	114
72	14
73	42
77	28
78	14
79	28
80	14
81	42
82	42
83	200
84	999
85	142
86	585
87	42
88	114
90	5
91	20
92	8
93	34
94	17
95	45
96	25
97	54
98	20
99	20
100	5
101	11
102	11
103	11
104	5
105	14
106	17
107	14
108	25
109	22
110	17
111	31
112	11
113	14
114	5
115	17
116	8
117	14
118	8
119	11
120	11
121	25
122	11
123	25
124	20
125	14
126	11
127	14
128	14
129	14
130	20
131	31
132	8
133	11
134	5
135	8
136	5
137	11
138	8
139	8
140	11
141	11
142	5
143	14
144	14
145	8
146	5
147	2
149	14
150	8
151	11
152	11
153	8
154	20
155	17
156	17
157	8
158	2
159	2
161	11
163	5
164	2
165	5
166	8
167	20
168	14
169	11
170	2
171	2
176	2
177	5
178	8
179	11
180	57
181	17
182	5
183	5
186	2
190	2
191	8
192	8
193	8
194	11
195	5
196	2
197	5
198	2
199	1
200	1
201	0
202	3
203	1
204	8
205	5
206	9
207	5
208	5
209	2
210	1
211	0
214	1
215	2
216	4
217	4
218	7
219	5
220	9
221	5
222	1
225	1
231	1
232	12
233	9
234	19
235	12
236	2
238	2
239	2
245	0
246	4
247	4
248	3
249	6
250	1
251	1
252	9
253	2
261	2
262	2
263	53
264	12
265	1
266	1
267	1
276	0
278	2
279	3
281	2
282	1
283	2
284	2
307	5
321	4
322	44
323	9
