Mass Spectrum: 1H-1,2,4-Triazole, 1-(2-propenyl)-
Formula: C5H7N3
CAS: 63935-98-8
Molecular weight: 109
m/z	intensity
50	23
51	99
52	215
53	882
54	920
55	253
56	114
57	54
58	4
63	4
67	13
68	125
69	854
70	416
71	16
80	429
81	826
82	172
107	51
108	999
109	877
