Mass Spectrum: (4-Methyl-1-methylenepent-4-enyl)benzene
Formula: C13H16
CAS: 63942-88-1
Molecular weight: 172
m/z	intensity
37	2
38	14
39	442
40	47
41	218
42	23
43	95
44	15
45	9
49	0
50	67
51	302
52	74
53	143
54	14
55	257
56	27
57	38
58	6
59	1
60	1
61	6
62	17
63	107
64	28
65	194
66	22
67	49
68	40
69	26
70	17
71	34
72	2
73	2
74	19
75	43
76	72
77	446
78	167
79	193
80	18
81	76
82	8
83	7
84	7
85	8
86	3
87	12
88	10
89	81
90	14
91	796
92	72
93	23
94	93
95	28
96	2
97	2
98	5
99	3
100	3
101	17
102	140
103	251
104	936
105	153
106	15
107	4
108	1
109	5
110	1
111	2
112	3
113	29
114	19
115	999
116	229
117	370
118	102
119	16
120	3
121	1
122	1
123	1
125	2
126	10
127	80
128	291
129	950
130	879
131	123
132	9
133	7
134	1
135	1
137	1
138	1
139	8
140	4
141	86
142	172
143	374
144	101
145	13
146	2
148	1
150	1
151	4
152	15
153	18
154	11
155	34
156	28
157	522
158	65
159	3
169	2
170	2
171	27
172	582
173	80
174	4
