Mass Spectrum: 9-Borabicyclo[3.3.1]nonane, 9-(2-methylpropyl)-
Formula: C12H23B
CAS: 63942-77-8
Molecular weight: 178
m/z	intensity
27	285
28	12
29	65
31	1
36	12
37	67
38	58
39	291
40	307
41	999
42	38
43	66
45	3
46	5
49	8
50	59
51	167
52	203
53	658
54	233
55	283
56	86
57	59
58	5
61	5
62	11
63	40
64	94
65	280
66	266
67	573
68	191
69	60
70	7
71	4
74	6
75	12
76	35
77	131
78	147
79	417
80	339
81	429
82	96
83	51
84	9
88	10
89	40
90	50
91	174
92	235
93	648
94	828
95	140
96	21
97	10
98	2
103	4
104	6
105	22
106	32
107	96
108	133
109	54
110	11
117	5
118	11
119	31
120	113
121	431
122	575
123	64
134	14
135	57
136	31
137	69
138	17
149	6
150	13
163	10
177	144
178	627
179	87
180	6
