Mass Spectrum: Acetophenone, 2-[(p-nitrophenyl)imino]-
Formula: C14H10N2O3
CAS: 6394-60-1
Molecular weight: 254
m/z	intensity
31	297
41	252
43	288
45	550
46	297
51	198
55	342
57	396
67	135
69	306
76	189
77	568
78	126
81	207
83	243
85	153
95	234
96	117
97	234
105	999
106	135
109	162
111	180
122	144
123	117
125	126
149	189
254	63
