Mass Spectrum: Acetamide, N,N-dimethyl-2-(4-chlorophenyl)-2-(2-methoxy-4-chlorophenyl)-
Formula: C17H17Cl2NO2
CAS: 63953-34-4
Molecular weight: 337
m/z	intensity
45	38
72	999
73	43
125	599
126	50
127	180
128	15
139	23
149	11
150	17
151	28
152	70
153	10
163	18
164	15
165	75
166	13
186	12
188	5
199	16
201	7
215	40
217	9
249	14
251	11
261	28
263	8
265	450
266	65
267	300
268	40
269	45
309	5
311	6
337	75
338	11
339	50
340	7
341	6
