Mass Spectrum: Cyclopentanemethanol, .alpha.-[[3,3-dimethyl-2-(1-methylethyl)oxiranyl]ethynyl]-.alpha.-methyl-
Formula: C16H26O2
CAS: 63954-68-7
Molecular weight: 250
m/z	intensity
41	250
43	999
55	100
67	120
69	150
79	100
81	100
93	120
95	100
107	120
123	380
124	100
149	130
177	300
192	100
207	20
