Mass Spectrum: Propylamine, N,.alpha.-dimethyl-.gamma.-phenyl-
Formula: C11H17N
CAS: 63957-19-7
Molecular weight: 163
m/z	intensity
41	48
42	64
56	85
58	999
59	54
65	60
77	43
78	21
90	89
91	293
92	25
103	22
104	16
105	16
115	18
116	12
117	54
131	8
132	9
146	7
148	84
149	9
162	15
163	44
