Mass Spectrum: Benzeneethanamine, 4-methoxy-.alpha.-methyl-
Formula: C10H15NO
CAS: 64-13-1
Molecular weight: 165
m/z	intensity
15	8
17	1
18	22
26	1
27	9
28	13
29	4
30	5
31	1
37	1
38	3
39	20
40	3
41	10
42	36
43	14
44	999
45	25
50	11
51	29
52	26
53	12
54	3
55	3
56	4
57	2
58	3
59	2
61	1
62	5
63	17
64	8
65	21
66	3
67	2
68	1
74	3
75	10
76	5
77	66
78	80
79	22
80	6
81	1
82	1
86	1
87	1
89	21
90	9
91	44
92	10
93	4
94	2
102	2
103	5
104	4
105	5
106	15
107	28
108	6
109	1
115	5
116	2
117	5
118	9
119	4
120	3
121	139
122	291
123	26
124	1
130	1
131	2
132	2
133	3
134	13
135	5
136	1
146	1
147	3
148	6
149	4
150	9
151	1
162	1
163	2
164	3
165	12
166	1
