Mass Spectrum: Acetic acid
Formula: C2H4O2
CAS: 64-19-7
Molecular weight: 60
m/z	intensity
2	2
12	6
13	20
14	48
15	170
16	23
17	9
18	27
24	2
25	4
26	5
27	1
28	40
29	84
30	4
31	24
32	1
40	8
41	35
42	130
43	999
44	24
45	903
46	10
47	2
55	1
57	2
60	747
61	19
62	2
