Mass Spectrum: Phenethylamine, p,.alpha.-dimethyl-
Formula: C10H15N
CAS: 64-11-9
Molecular weight: 149
m/z	intensity
42	31
44	999
45	29
51	17
53	11
65	18
66	11
77	37
78	12
79	18
89	4
91	45
103	15
104	8
105	34
106	17
115	8
117	7
118	3
132	2
134	6
