Mass Spectrum: Formic acid
Formula: CH2O2
CAS: 64-18-6
Molecular weight: 46
m/z	intensity
12	33
13	29
14	4
16	52
17	171
19	2
28	172
29	999
30	17
31	6
32	2
44	100
45	476
46	609
47	10
48	3
