Mass Spectrum: Ethanol
Formula: C2H6O
CAS: 64-17-5
Molecular weight: 46
m/z	intensity
12	2
13	13
14	14
15	66
17	7
18	5
19	27
24	6
25	24
26	98
27	224
28	34
29	298
30	81
31	999
33	3
41	13
42	47
43	114
44	7
45	514
46	216
47	7
