Mass Spectrum: 4-Piperidinone, 2,2,6,6-tetramethyl-1-nitroso-
Formula: C9H16N2O2
CAS: 640-01-7
Molecular weight: 184
m/z	intensity
30	49
39	166
40	44
41	349
42	266
43	54
51	8
52	8
53	34
54	36
55	63
56	999
57	116
58	33
59	33
67	16
68	18
69	34
70	116
71	13
72	16
82	83
83	149
84	36
85	13
86	116
87	29
96	16
97	149
98	61
112	9
125	39
128	116
129	16
139	46
140	108
141	9
154	11
184	124
185	13
