Mass Spectrum: Acetamide, 2-fluoro-
Formula: C2H4FNO
CAS: 640-19-7
Molecular weight: 77
m/z	intensity
12	2
13	5
14	12
15	3
16	26
17	3
18	1
20	1
26	2
27	10
28	47
29	10
30	21
31	13
32	18
33	135
34	1
38	4
39	4
40	7
41	6
42	38
43	29
44	999
45	14
46	4
47	2
48	14
58	3
59	6
60	24
61	9
77	418
78	11
79	1
