Mass Spectrum: 1-Naphthalenecarboxylic acid, 5-(4-carboxy-3-methyl-3-butenyl)decahydro-1,4a-dimethyl-6-methylene-, [1S-[1.alpha.,4a.alpha.,5.alpha.(E),8a.beta.]]-
Formula: C20H30O4
CAS: 640-28-8
Molecular weight: 334
m/z	intensity
12	18
14	10
15	12
16	43
17	53
18	206
26	14
27	111
28	59
29	175
31	10
38	10
39	216
40	47
41	527
42	61
43	311
44	999
45	53
50	12
51	43
52	26
53	230
54	45
55	461
56	49
57	74
58	10
59	37
60	10
63	18
64	8
65	105
66	53
67	367
68	82
69	237
70	20
71	53
72	4
73	16
74	12
75	10
76	8
77	272
78	74
79	420
80	131
81	830
82	171
83	101
84	14
85	22
86	4
87	59
88	2
89	16
90	8
91	468
92	96
93	478
94	138
95	424
96	72
97	111
98	18
99	14
100	28
101	12
102	12
103	49
104	30
105	443
106	154
107	486
108	193
109	381
110	49
111	66
113	16
114	18
115	99
116	41
117	111
118	72
119	327
120	164
121	927
122	274
123	369
124	66
125	61
126	12
127	26
128	76
129	90
130	33
131	144
132	66
133	303
134	94
135	214
136	94
137	66
138	14
139	284
140	47
141	66
142	45
143	82
144	39
145	154
146	53
147	218
148	90
149	144
150	43
151	41
152	37
154	16
155	72
156	28
157	107
158	39
159	181
160	66
161	233
162	63
163	107
164	26
165	49
166	57
167	212
168	41
169	47
170	16
171	61
172	24
173	212
174	59
175	212
176	76
177	90
178	33
179	76
180	78
181	37
182	16
183	33
184	14
185	45
186	18
187	70
188	107
189	428
190	92
191	66
192	24
193	61
194	22
195	20
196	8
197	51
198	16
199	49
200	20
201	78
202	35
203	41
204	24
205	41
206	37
207	111
208	20
209	26
210	12
211	127
212	30
213	82
214	24
215	47
216	39
217	57
218	28
219	61
220	78
221	82
222	78
223	26
224	10
225	20
226	16
227	74
228	66
229	261
230	74
231	61
232	16
233	68
234	82
235	76
236	18
237	14
238	6
239	22
240	16
241	24
242	22
243	41
244	88
245	200
246	57
247	55
248	14
249	2
251	2
252	2
253	16
254	10
255	33
256	16
257	127
258	41
259	115
260	37
261	51
262	107
263	18
267	2
268	2
269	10
270	22
271	30
272	57
273	115
274	156
275	639
276	127
277	16
281	4
282	6
283	16
284	14
285	14
286	26
287	16
288	78
289	41
290	206
291	45
292	2
298	20
299	6
300	16
301	16
302	16
303	2
314	6
316	47
317	10
319	12
334	4
