Mass Spectrum: Phenol, 4-(1-tetrazolyl)-
Formula: C7H6N4O
CAS: 64001-11-2
Molecular weight: 162
m/z	intensity
33	3
38	378
41	63
42	14
43	7
44	2
45	3
46	4
52	999
53	162
54	37
55	31
56	1
57	0
62	108
63	81
65	183
66	16
67	7
68	6
69	1
70	0
71	0
74	18
75	10
79	519
80	54
81	28
82	2
83	0
85	0
86	0
87	2
88	3
89	9
90	3
91	4
93	51
94	8
95	0
98	0
102	0
105	31
107	488
108	22
109	1
113	0
116	1
117	0
119	2
120	4
121	3
122	0
131	0
134	542
135	32
137	0
149	0
162	43
163	7
164	0
