Mass Spectrum: .beta.-D-Ribofuranoside, phenylmethyl 5-O-methyl-2,3-O-(1-methylethylidene)-
Formula: C16H22O5
CAS: 64018-52-6
Molecular weight: 294
m/z	intensity
26	1
27	14
28	2
29	26
30	1
31	17
33	6
38	2
39	37
40	6
41	65
42	8
43	116
44	6
45	283
46	7
47	0
50	4
51	15
52	4
53	5
54	2
55	35
56	4
57	29
58	8
59	73
60	6
61	9
62	0
63	11
64	4
65	88
66	5
67	2
68	78
69	36
70	10
71	154
72	9
73	22
74	2
75	4
76	1
77	20
78	4
79	16
80	3
81	6
82	3
83	8
84	4
85	46
86	5
87	17
88	1
89	20
90	22
91	999
92	86
93	4
94	1
95	4
96	1
97	14
98	32
99	298
100	145
101	34
102	3
103	3
104	8
105	8
106	2
107	12
108	16
109	3
110	1
111	3
112	2
113	70
114	8
115	4
116	1
117	6
118	1
119	2
120	1
121	3
122	0
123	0
124	0
125	6
126	4
127	3
128	9
129	102
130	50
131	8
132	2
133	4
134	1
135	1
136	15
137	2
139	17
140	3
141	2
143	13
144	1
145	183
146	13
147	3
148	0
149	22
150	2
151	1
152	0
155	0
156	2
157	25
158	10
159	9
160	2
161	3
162	1
163	2
165	1
167	1
168	0
169	1
170	38
171	5
172	1
173	11
174	1
175	0
176	1
177	0
178	0
185	0
186	1
187	43
188	6
189	2
190	1
191	10
192	1
193	0
194	0
195	3
196	0
201	0
203	17
204	2
205	1
206	0
218	1
219	2
220	1
249	6
250	1
262	1
279	32
280	6
281	1
