Mass Spectrum: 5-Isoxazolecarboxylic acid, 4,5-dihydro-3,5-dimethyl-, methyl ester, (R)-
Formula: C7H11NO3
CAS: 64018-41-3
Molecular weight: 157
m/z	intensity
39	60
41	90
43	560
53	30
55	40
56	999
57	60
59	30
67	20
69	20
97	40
98	560
99	40
157	10
