Mass Spectrum: 5-Isoxazolidinecarboxylic acid, 2-[2,3:5,6-bis-O-(1-methylethylidene)-.alpha.-D-mannofuranosyl]-3,5-dimethyl-, methyl ester, (3S-cis)-
Formula: C19H31NO8
CAS: 64018-58-2
Molecular weight: 401
m/z	intensity
26	3
27	42
28	29
29	83
30	11
31	37
33	1
37	1
38	2
39	51
40	16
41	277
42	118
43	999
44	56
45	36
46	7
47	2
50	2
51	4
52	3
53	34
54	23
55	147
56	67
57	160
58	55
59	289
60	53
61	39
62	2
63	4
64	2
65	6
66	4
67	44
68	80
69	203
70	78
71	141
72	73
73	64
74	5
75	4
76	2
77	5
78	3
79	9
80	10
81	98
82	39
83	86
84	49
85	212
86	26
87	14
88	8
89	2
90	0
91	5
92	1
93	8
94	10
95	61
96	34
97	72
98	108
99	170
100	195
101	333
102	19
103	29
104	3
105	3
106	3
107	6
108	4
109	24
110	27
111	30
112	49
113	44
114	14
115	30
116	3
117	2
118	0
119	1
120	1
121	8
122	4
123	11
124	12
125	37
126	72
127	192
128	37
129	76
130	9
131	1
132	0
133	1
134	1
135	9
136	4
137	8
138	5
139	9
140	9
141	136
142	47
143	25
144	18
145	42
146	2
147	1
148	1
149	44
150	5
151	3
152	2
153	3
154	58
155	18
156	25
157	6
158	3
159	269
160	87
161	7
162	0
163	0
164	2
165	4
166	2
167	45
168	27
169	5
170	2
171	1
172	34
173	5
174	0
175	1
176	0
177	1
178	0
179	1
180	1
181	1
182	1
183	11
184	7
185	176
186	19
187	65
188	332
189	30
190	3
191	0
192	0
193	5
194	0
195	0
196	0
197	0
198	4
199	1
200	25
201	3
202	0
203	0
205	3
206	1
207	0
208	0
209	1
210	2
211	0
212	10
213	62
214	23
215	3
225	2
226	14
227	6
228	5
229	0
230	0
231	0
238	0
239	0
240	1
241	0
242	8
243	14
244	2
245	0
250	0
251	0
252	0
253	0
254	0
255	0
256	2
257	0
267	0
268	3
269	0
270	2
271	0
272	0
284	28
285	5
286	8
287	0
300	245
301	39
302	4
326	7
327	0
328	16
329	2
330	8
331	1
342	18
343	5
344	0
356	1
371	0
386	145
387	30
388	5
401	141
402	32
403	4
