Mass Spectrum: Acetamide, N-[4-(acetyloxy)-3-hydroxy-3-methylbutyl]-, (R)-
Formula: C9H17NO4
CAS: 64018-48-0
Molecular weight: 203
m/z	intensity
30	780
41	40
42	70
43	999
44	250
45	40
55	40
57	40
58	50
59	90
60	600
61	20
70	40
71	140
72	280
73	60
75	40
82	30
83	150
85	50
86	230
87	110
88	320
111	30
117	30
125	160
126	40
130	370
131	30
137	30
140	40
143	20
160	20
188	30
189	10
203	10
204	5
