Mass Spectrum: 1,3-Dioxolane, 4-(2-azidoethyl)-2,2,4-trimethyl-, (S)-
Formula: C8H15N3O2
CAS: 64018-45-7
Molecular weight: 185
m/z	intensity
39	110
41	170
42	300
43	999
44	60
45	20
55	230
56	60
57	220
58	50
59	200
67	40
70	30
71	50
72	380
73	30
82	470
83	60
84	40
98	40
100	40
101	140
115	30
142	30
170	170
171	10
