Mass Spectrum: D-Ribose, 5-O-methyl-2,3-O-(1-methylethylidene)-
Formula: C9H16O5
CAS: 64018-53-7
Molecular weight: 204
m/z	intensity
29	120
31	100
39	90
41	210
43	600
45	660
55	130
57	140
59	999
68	480
69	220
71	410
73	380
85	200
97	100
100	380
101	250
113	130
114	100
129	130
146	140
159	200
189	370
