Mass Spectrum: 5-Isoxazolidinemethanol, 2-acetyl-5-methyl-, acetate (ester), (R)-
Formula: C9H15NO4
CAS: 64018-47-9
Molecular weight: 201
m/z	intensity
41	60
43	999
44	90
46	100
54	40
56	30
57	30
58	20
61	20
68	50
69	80
72	300
76	20
84	160
86	80
88	40
98	30
99	400
100	50
114	50
117	30
128	20
141	10
159	450
160	30
201	100
202	30
