Mass Spectrum: 5-Isoxazolecarboxylic acid, 4,5-dihydro-5-methyl-, methyl ester, (R)-
Formula: C6H9NO3
CAS: 64018-42-4
Molecular weight: 143
m/z	intensity
41	130
42	330
43	999
44	40
45	20
53	40
55	30
59	80
68	30
69	40
83	130
84	640
85	40
143	10
