Mass Spectrum: 5-Isoxazolidinecarboxylic acid, 3,5-dimethyl-, methyl ester, (3R-cis)-
Formula: C7H13NO3
CAS: 64018-40-2
Molecular weight: 159
m/z	intensity
41	390
42	280
43	920
44	50
56	100
57	80
58	980
59	470
60	200
67	60
69	260
73	170
84	240
95	40
100	999
101	690
102	40
112	80
127	30
144	100
159	510
160	80
