Mass Spectrum: 5-Isoxazolidinecarboxylic acid, 2-[2,3:5,6-bis-O-(1-methylethylidene)-.alpha.-D-mannofuranosyl]-3,3,5-trimethyl-, methyl ester, (S)-
Formula: C20H33NO8
CAS: 64018-59-3
Molecular weight: 415
m/z	intensity
41	150
42	100
43	999
55	120
56	100
57	100
59	250
68	70
69	120
70	90
71	120
72	100
73	110
81	140
83	80
85	120
86	40
95	40
97	70
98	120
99	200
101	370
109	90
110	30
112	30
113	50
114	120
115	40
126	60
127	170
129	80
141	230
142	70
143	40
144	50
149	40
158	180
167	60
173	330
174	110
185	200
186	50
200	30
201	70
202	420
203	50
212	30
213	30
214	30
227	150
228	40
314	280
315	50
400	110
415	100
