Mass Spectrum: Isoxazolidine, 5-hexyl-, (+)-
Formula: C9H19NO
CAS: 64018-29-7
Molecular weight: 157
m/z	intensity
30	330
41	330
43	370
46	999
55	260
56	140
57	150
59	40
67	100
68	60
69	150
70	150
71	60
72	160
81	90
82	80
83	100
84	40
85	40
86	80
95	50
100	30
112	60
128	20
140	30
157	70
