Mass Spectrum: trans-Traumatic acid
Formula: C12H20O4
CAS: 6402-36-4
Molecular weight: 228
m/z	intensity
12	6
13	3
14	14
15	28
16	13
17	78
18	416
19	3
24	1
25	8
26	78
27	410
28	174
29	410
30	10
31	46
32	2
34	2
36	3
37	12
38	27
39	430
40	102
41	828
42	146
43	303
44	162
45	129
46	4
47	5
48	1
49	3
50	28
51	60
52	38
53	228
54	302
55	999
56	133
57	119
58	29
59	70
60	225
61	14
62	7
63	15
64	7
65	59
66	85
67	450
68	467
69	349
70	92
71	87
72	14
73	257
74	26
75	6
76	4
77	69
78	65
79	227
80	173
81	680
82	361
83	259
84	283
85	52
86	187
87	68
88	13
89	5
90	5
91	142
92	62
93	124
94	165
95	285
96	333
97	208
98	372
99	113
100	121
101	59
102	8
103	13
104	42
105	58
106	73
107	92
108	110
109	155
110	104
111	58
112	48
113	48
114	90
115	37
116	12
117	49
118	30
119	45
120	59
121	68
122	161
123	123
124	101
125	51
126	28
127	34
128	34
129	21
130	62
131	29
132	41
133	47
134	11
135	55
136	80
137	83
138	81
139	21
140	19
141	12
142	11
143	10
144	6
145	14
146	34
147	28
148	26
149	36
150	82
151	62
152	9
153	16
154	15
155	9
156	10
157	4
158	3
159	4
160	3
161	2
162	6
163	17
164	127
165	25
166	54
167	19
168	37
169	9
170	3
171	2
172	4
173	6
174	29
175	12
176	2
177	4
178	2
179	2
180	3
181	8
182	170
183	24
184	5
185	2
188	2
190	5
191	8
192	193
193	24
194	5
195	2
196	1
206	1
208	3
209	2
210	97
211	18
212	3
