Mass Spectrum: Acetamide, N,N-bis[2-(2,2,4-trimethyl-1,3-dioxolan-4-yl)ethyl]-, [s-(R*,R*)]-
Formula: C18H33NO5
CAS: 64061-18-3
Molecular weight: 343
m/z	intensity
30	110
41	180
42	320
43	999
56	130
57	280
58	430
59	150
72	330
84	380
85	260
86	60
88	80
96	330
100	300
112	160
114	700
115	320
126	150
127	70
128	100
144	140
152	100
154	150
156	650
157	140
158	50
168	110
170	210
171	100
172	70
184	50
186	40
196	50
212	120
214	220
227	200
228	230
240	30
242	30
252	40
268	210
270	150
285	150
286	40
300	60
328	440
329	100
343	50
344	10
