Mass Spectrum: Phosphinothioic anidee, di(tert-butyl)-N-isopropyl-
Formula: C11H26NPS
CAS: 64067-40-9
Molecular weight: 235
m/z	intensity
33	200
34	37
35	6
36	8
37	2
40	43
41	379
43	201
44	168
45	43
46	49
47	58
48	60
49	4
50	5
51	9
52	1
53	8
55	95
57	999
58	370
59	26
61	27
63	142
64	28
65	22
66	6
67	12
69	44
71	45
72	9
73	12
74	5
75	3
76	1
77	24
78	23
79	44
80	71
81	26
82	15
83	30
84	9
85	25
87	47
88	48
89	20
90	61
91	11
93	20
94	15
95	71
96	22
97	27
98	4
99	6
100	7
104	13
106	97
107	13
108	15
109	8
110	14
111	20
112	26
113	4
118	1
122	961
123	74
124	40
125	8
126	8
127	3
128	7
130	0
136	2
137	5
138	6
139	3
140	8
146	15
148	0
150	0
151	0
154	1
156	27
162	9
163	4
164	4
178	132
179	43
180	11
181	2
219	1
234	26
235	59
236	7
237	0
