Mass Spectrum: Phenol, 4-chloro-2-(4-nitrobenzylidenamino)-
Formula: C13H9ClN2O3
CAS: 64073-87-6
Molecular weight: 276
m/z	intensity
34	34
36	33
37	86
38	169
39	469
40	459
41	154
43	182
44	222
45	63
46	66
48	6
49	31
50	456
51	541
52	156
53	106
54	55
55	81
56	33
57	57
58	19
59	8
60	25
61	68
62	225
63	565
64	115
65	376
66	52
67	23
68	11
69	70
70	52
71	33
72	14
73	132
74	124
75	174
76	283
77	267
78	82
79	59
80	14
81	33
82	39
83	74
84	31
85	30
86	43
87	51
88	47
89	116
90	79
91	999
92	150
93	54
94	19
95	18
96	6
97	20
98	57
99	171
100	34
101	68
102	30
103	77
104	52
105	47
106	21
107	13
108	8
109	18
110	10
111	14
112	18
113	18
114	29
115	23
116	12
117	10
118	9
119	18
120	47
121	32
122	11
123	13
124	12
125	30
126	41
127	92
128	36
129	27
130	4
131	4
132	0
133	4
134	3
135	15
136	15
137	11
138	16
139	71
140	52
141	10
142	5
143	4
144	1
148	2
149	22
150	61
151	82
152	30
154	768
155	82
156	223
157	16
162	1
163	4
164	16
165	21
166	56
167	33
168	25
169	4
171	3
173	5
174	5
175	2
176	2
177	2
178	11
179	2
180	11
181	3
182	5
183	8
185	0
186	0
187	1
188	2
189	1
192	1
193	7
194	11
195	7
196	1
197	3
199	2
200	10
201	12
202	4
203	3
207	0
210	0
211	5
212	10
213	46
214	11
215	16
216	6
217	11
218	9
219	6
220	1
226	5
227	1
228	20
229	69
230	20
231	24
232	3
242	0
244	3
245	4
246	9
247	3
248	2
260	1
272	13
273	24
275	147
276	170
277	47
278	55
279	8
