Mass Spectrum: 1-Phenyl-3-methyl-4-(4-chlorophenylazo)-5-pyrazolone
Formula: C16H13ClN4O
CAS: 6407-74-5
Molecular weight: 312
m/z	intensity
28	60
29	70
39	180
42	30
43	80
51	160
63	90
64	140
65	60
67	270
75	100
76	90
77	999
78	140
90	170
91	520
92	100
99	400
101	100
103	140
104	80
105	250
106	100
107	120
111	230
113	100
115	70
118	90
119	80
125	170
126	310
127	410
128	120
129	110
130	60
158	100
159	40
173	210
174	50
186	50
201	730
202	90
203	100
312	980
313	187
314	337
315	61
