Mass Spectrum: N-(4-Chlorophenyl)-2-furancarbothioamide
Formula: C11H8ClNOS
CAS: 64078-18-8
Molecular weight: 237
m/z	intensity
39	323
45	29
50	60
51	40
63	39
67	40
71	29
75	99
83	59
86	49
94	211
101	69
109	30
111	999
144	259
146	90
149	39
204	200
206	70
236	139
237	380
238	70
239	130
