Mass Spectrum: Morpholine, 4-(2,4-dinitrophenylbenzoyl)-
Formula: C11H11N3O6
CAS: 64080-10-0
Molecular weight: 281
m/z	intensity
33	2
34	5
36	0
37	5
38	13
39	17
40	79
41	43
42	171
43	34
44	62
45	52
46	8
48	2
50	35
51	17
52	13
53	20
54	50
55	179
56	999
57	48
58	25
59	6
60	1
61	5
62	22
63	64
64	18
65	7
66	4
67	2
68	3
69	4
70	58
72	103
73	48
74	114
75	376
76	82
77	87
78	11
79	5
80	2
81	1
82	1
84	28
85	178
86	833
87	42
88	7
89	21
90	12
91	38
92	18
93	3
94	1
95	0
96	0
97	0
98	0
99	1
100	31
101	6
102	29
103	128
104	48
105	18
106	6
107	10
108	12
109	1
110	0
111	0
112	0
113	0
114	2
115	3
116	3
117	11
118	5
119	17
120	37
121	5
122	4
123	0
124	2
125	0
127	0
129	2
130	5
131	5
132	2
133	11
134	17
135	4
136	3
137	0
138	1
142	0
143	0
144	1
145	8
146	7
147	4
149	102
150	20
151	3
152	1
153	0
157	0
158	1
159	5
160	9
161	3
162	5
163	2
164	3
165	12
166	3
167	0
171	1
172	4
173	0
174	2
175	5
176	3
177	6
178	3
179	49
180	34
181	3
182	0
184	1
186	0
187	0
188	3
189	2
190	1
191	40
192	34
193	6
195	172
196	52
197	5
198	0
200	1
204	93
205	14
206	4
207	1
208	1
217	1
218	2
219	0
220	0
221	11
222	3
223	8
224	0
226	0
228	2
229	0
234	29
235	5
236	1
238	0
240	0
246	27
247	4
248	0
250	39
251	7
252	0
264	3
266	44
267	5
268	0
279	0
281	138
282	18
283	2
284	0
