Mass Spectrum: 1-(Butylsulfanyl)-2-ethoxyethane
Formula: C8H18OS
CAS: 64080-53-1
Molecular weight: 162
m/z	intensity
28	38
29	212
30	14
37	5
38	15
39	129
40	40
41	383
42	59
43	283
44	191
45	516
46	198
47	188
48	20
49	11
50	11
51	14
52	4
53	32
54	91
55	250
56	306
57	177
58	73
59	628
60	312
61	999
62	48
63	44
65	2
66	3
67	4
68	2
69	10
70	7
71	7
72	578
73	107
74	23
75	94
76	10
77	19
78	3
79	3
82	1
85	3
87	13
88	244
89	33
90	82
91	16
92	3
94	2
101	5
103	46
104	4
105	13
106	13
115	4
116	19
117	39
118	3
119	2
162	285
163	25
164	17
