Mass Spectrum: Anthiaergostan-5,7,9,22-tetraen-3-one
Formula: C28H40O
CAS: 64110-74-3
Molecular weight: 392
m/z	intensity
41	529
42	16
43	999
44	10
45	5
47	14
48	6
49	5
50	5
51	3
52	7
53	123
55	930
56	13
57	180
58	6
59	4
63	6
64	2
65	51
66	18
67	358
68	39
69	501
70	83
71	57
72	3
75	2
77	97
78	15
79	108
80	20
81	302
82	71
83	237
84	57
85	11
86	29
87	3
88	4
89	7
91	110
92	16
93	97
94	30
95	159
96	39
97	62
98	11
99	3
101	2
102	5
103	14
104	9
105	56
106	9
107	53
108	19
109	198
110	20
111	18
113	3
115	89
116	23
117	26
118	6
119	13
120	2
121	23
122	6
123	117
124	72
125	118
126	14
127	35
128	101
129	78
130	22
131	48
132	9
133	9
134	2
135	11
137	156
138	13
139	9
141	121
142	97
143	200
144	36
145	55
146	9
147	4
149	4
150	2
151	16
152	54
153	121
154	94
155	331
156	110
157	167
158	22
159	9
161	2
163	7
165	138
166	71
167	137
168	84
169	267
170	60
171	50
172	16
173	215
174	33
175	10
176	4
177	6
178	43
179	52
180	27
181	87
182	58
183	183
184	60
185	41
186	10
187	22
188	4
189	8
190	5
191	14
192	15
193	34
194	24
195	99
196	60
197	128
198	68
199	167
200	20
201	6
202	5
203	7
204	4
205	11
206	8
207	28
208	17
209	53
210	31
211	264
212	136
213	308
214	57
215	10
216	3
217	3
218	2
219	5
220	2
221	10
222	8
223	91
224	66
225	554
226	206
227	94
228	17
229	4
233	2
234	2
235	10
236	8
237	68
238	58
239	131
240	293
241	66
242	11
243	2
247	2
249	8
250	7
251	44
252	40
253	58
254	13
255	4
256	2
263	7
264	25
265	288
266	96
267	378
268	101
269	12
277	3
278	5
279	58
280	13
281	7
282	2
291	3
292	2
293	26
294	80
295	40
296	9
297	3
307	8
308	22
309	6
321	3
322	8
323	2
348	1
349	23
350	7
351	2
363	1
364	5
365	2
377	14
378	5
390	7
391	19
392	319
393	79
394	22
395	3
