Mass Spectrum: 6-Nitro-m-tolunitrile
Formula: C8H6N2O2
CAS: 64113-86-6
Molecular weight: 162
m/z	intensity
41	41
42	4
43	11
44	2
45	12
46	43
48	4
49	32
50	164
51	230
52	85
53	40
54	5
55	3
56	1
57	1
59	4
60	3
61	90
62	177
63	440
64	138
65	66
66	15
67	1
72	2
73	10
74	26
75	64
76	77
77	452
78	73
79	5
84	8
85	12
86	28
87	57
88	122
89	999
90	221
91	12
92	2
93	2
98	2
99	16
100	7
101	3
102	26
103	19
104	283
105	27
106	2
107	0
110	0
111	4
112	3
113	0
114	50
115	32
116	339
117	32
118	27
119	2
129	1
130	1
132	400
133	35
134	2
143	0
146	30
147	4
148	4
160	4
161	5
162	742
163	61
164	9
