Mass Spectrum: Phosphine, tridodecyl-
Formula: C36H75P
CAS: 6411-24-1
Molecular weight: 538
m/z	intensity
25	1
26	4
27	80
28	18
29	305
30	6
34	1
35	1
37	0
38	0
39	35
40	8
41	470
42	80
43	999
44	32
45	10
46	4
47	18
48	66
49	36
50	1
51	2
52	0
53	16
54	22
55	472
56	77
57	431
58	19
59	29
60	20
61	120
62	482
63	47
64	9
65	3
66	2
67	52
68	18
69	238
70	43
71	103
72	5
73	58
74	63
75	135
76	432
77	30
78	29
79	10
80	4
81	35
82	12
83	86
84	17
85	40
86	7
87	51
88	108
89	99
90	167
91	20
92	12
93	3
94	2
95	19
96	6
97	41
98	8
99	10
100	13
101	59
102	126
103	71
104	94
105	13
106	3
107	1
108	1
109	6
110	4
111	13
112	4
113	7
114	11
115	61
116	99
117	70
118	56
119	10
120	1
121	2
122	2
123	2
124	1
125	3
126	6
127	9
128	7
129	51
130	58
131	60
132	41
133	8
134	1
135	1
136	0
137	1
138	2
139	2
140	2
141	6
142	5
143	47
144	31
145	53
146	32
147	6
148	0
149	1
151	0
152	0
153	0
154	1
155	6
156	3
157	42
158	15
159	50
160	26
161	6
162	1
163	1
166	1
167	1
168	13
169	10
170	1
171	38
172	10
173	43
174	21
175	4
176	1
177	0
178	0
179	1
180	1
181	1
183	4
184	1
185	35
186	6
187	34
188	15
189	3
190	0
191	0
193	1
194	0
197	4
198	1
199	32
200	11
201	181
202	43
203	83
204	12
205	0
209	0
211	4
212	1
213	25
214	9
215	87
216	302
217	82
218	11
219	4
220	1
221	0
223	0
225	3
226	1
227	29
228	6
229	112
230	178
231	34
232	9
233	3
234	1
235	11
236	1
239	3
240	1
241	21
242	6
243	109
244	72
245	17
246	4
247	1
249	2
250	0
251	1
255	38
256	18
257	67
258	49
259	12
260	2
261	1
262	0
265	0
267	3
269	27
271	81
272	40
273	13
274	5
275	4
276	2
277	4
278	2
279	1
281	3
283	27
284	7
285	72
286	34
287	9
288	1
289	1
290	0
293	1
295	4
296	2
297	30
298	8
299	66
300	28
301	7
302	1
303	1
309	3
310	1
311	30
312	8
313	68
314	30
315	10
316	2
317	1
322	0
323	2
324	1
325	25
326	8
327	66
328	29
329	7
330	1
331	0
335	0
337	3
339	27
340	8
341	60
342	23
343	6
344	1
345	1
351	2
353	26
355	38
356	12
357	4
358	1
359	2
360	1
361	1
363	2
365	4
367	28
369	205
370	692
371	265
372	46
373	5
374	1
375	0
376	0
379	2
381	21
383	54
384	140
385	38
386	9
387	7
388	1
393	2
395	29
397	201
398	73
399	16
400	2
401	0
402	0
403	4
404	1
407	1
409	20
411	56
412	22
413	4
414	0
415	0
421	1
423	23
425	123
426	41
427	8
428	1
429	0
430	0
431	0
435	1
437	21
439	124
440	45
441	8
442	0
449	1
451	19
453	133
454	47
455	9
456	1
457	0
465	15
467	128
468	48
469	10
470	0
477	0
479	10
481	167
482	62
483	13
484	1
493	9
495	151
496	61
497	12
498	2
499	0
507	6
509	76
510	31
511	8
512	1
513	0
521	2
523	24
524	10
525	1
526	0
532	0
535	11
537	324
538	403
539	139
540	30
541	4
542	0
