Mass Spectrum: 2-Tetrazene, 1,1-dimethyl-4,4-bis(1-methylethyl)-
Formula: C8H20N4
CAS: 64113-41-3
Molecular weight: 172
m/z	intensity
27	195
29	21
30	79
39	50
40	15
41	207
42	300
43	863
44	999
45	73
56	39
57	20
58	773
59	636
60	15
70	102
71	11
72	359
73	15
84	45
85	12
86	61
99	9
100	10
157	66
158	6
172	819
173	68
