Mass Spectrum: Ethyl acetoacetate ethylene acetal
Formula: C8H14O4
CAS: 6413-10-1
Molecular weight: 174
m/z	intensity
26	11
27	64
28	32
29	167
31	27
39	39
40	16
41	65
42	67
43	681
44	31
45	45
55	7
57	9
58	21
59	41
60	6
61	7
69	15
71	13
72	18
84	6
85	32
86	23
87	999
88	46
89	63
99	12
101	3
113	4
117	33
131	12
144	3
159	125
160	10
