Mass Spectrum: 1,5-Dioxaspiro[5.5]undecane, 2-methyl-
Formula: C10H18O2
CAS: 6413-26-9
Molecular weight: 170
m/z	intensity
24	28
41	19
42	112
43	124
54	49
55	999
56	166
57	7
60	19
68	19
69	181
70	131
71	28
72	7
73	335
74	28
80	93
81	59
83	47
85	28
86	48
87	19
97	19
98	281
99	129
114	131
115	7
117	7
126	7
127	598
128	192
129	7
141	232
142	7
155	7
170	232
171	19
