Mass Spectrum: Spirohexan-4-one, 5,5-dimethyl-
Formula: C8H12O
CAS: 64149-38-8
Molecular weight: 124
m/z	intensity
24	3
26	34
27	263
28	68
29	98
30	2
31	2
33	1
36	1
37	18
38	56
39	542
40	999
41	551
42	77
43	59
44	2
45	3
46	2
47	0
49	4
50	42
51	70
52	34
53	217
54	183
55	108
56	174
57	16
58	1
59	1
60	0
61	4
62	10
63	22
64	4
65	61
66	33
67	839
68	265
69	107
70	56
71	4
72	0
73	2
74	3
75	2
76	0
77	33
78	8
79	104
80	17
81	562
82	440
83	34
84	6
85	1
86	4
87	0
89	0
91	21
92	3
93	14
94	4
95	57
96	155
97	13
98	1
103	0
105	3
106	8
107	4
108	1
109	201
110	17
111	1
112	0
115	0
119	0
121	0
123	31
124	423
125	39
126	3
