Mass Spectrum: N-(3-Chloro-4-fluorophenyl)benzamide
Formula: C13H9ClFNO
CAS: 64141-28-2
Molecular weight: 249
m/z	intensity
33	2
34	0
35	2
36	5
37	6
38	13
39	16
40	5
41	4
42	1
43	3
44	7
45	1
46	0
47	0
48	0
49	6
50	72
51	218
52	19
53	4
54	1
55	5
56	10
57	21
58	2
59	0
60	1
61	6
62	11
63	14
64	4
65	3
66	1
67	8
68	3
69	5
70	1
71	2
72	2
73	7
74	20
75	17
76	50
77	570
78	41
79	2
80	3
81	22
82	16
83	7
84	2
85	2
86	1
87	1
88	2
89	4
90	2
91	9
92	2
93	8
94	4
95	1
96	0
97	2
98	1
99	1
100	1
101	0
105	999
106	75
107	7
108	16
109	22
110	3
111	1
112	0
113	0
114	0
115	1
117	30
118	2
119	8
120	1
121	0
122	0
123	0
124	0
125	0
126	0
127	0
128	0
129	3
130	0
131	1
132	0
133	1
134	0
135	0
137	0
138	0
139	0
140	0
141	0
142	0
143	2
144	9
145	7
146	3
147	2
149	3
150	0
156	0
157	2
158	1
159	0
163	0
164	0
165	0
166	0
168	0
169	0
170	0
171	0
173	0
175	0
177	0
182	0
183	0
184	3
185	5
186	0
187	0
188	0
191	0
194	0
195	0
196	0
205	0
213	1
214	1
215	0
219	0
220	0
221	0
222	0
224	0
230	0
233	0
246	0
249	176
250	28
251	53
252	7
253	0
