Mass Spectrum: sedanolide
Formula: C12H18O2
CAS: 6415-59-4
Molecular weight: 194
m/z	intensity
41	200
53	130
77	180
79	819
80	559
81	380
108	999
109	619
137	420
194	110
