Mass Spectrum: Phosphoramidic acid, bis(1-methylethyl) ester
Formula: C6H16NO3P
CAS: 6415-20-9
Molecular weight: 181
m/z	intensity
41	261
42	154
43	162
44	25
45	223
59	59
64	15
80	202
81	85
87	19
98	999
122	71
124	392
125	19
138	35
139	55
140	138
166	17
181	33
182	13
