Mass Spectrum: Benzamide, N-(2-chloro-4-nitrophenyl)-
Formula: C13H9ClN2O3
CAS: 64160-38-9
Molecular weight: 276
m/z	intensity
34	9
35	11
36	31
37	18
38	37
39	36
40	51
41	10
43	12
44	20
46	5
48	9
50	118
51	204
52	28
53	7
55	7
57	4
60	5
61	18
62	35
63	67
64	10
65	7
70	5
72	7
73	16
74	30
75	44
77	649
78	23
87	4
88	8
89	7
90	11
97	7
98	8
99	5
100	5
101	7
105	999
106	59
120	5
125	5
241	20
276	28
277	4
278	7
