Mass Spectrum: 2-[4-Oxiran-2-ylmethoxy)phenoxymethyl]oxirane
Formula: C12H14O4
CAS: 641613-65-2
Molecular weight: 222
m/z	intensity
33	4
37	10
38	72
39	223
40	50
41	124
42	55
43	132
44	40
45	4
49	1
50	65
51	85
52	83
53	199
54	177
55	122
56	12
57	999
58	59
59	3
61	4
62	28
63	136
64	120
65	120
66	47
67	26
68	7
69	11
71	2
74	7
75	13
76	20
77	99
78	30
79	58
80	17
81	207
82	87
83	15
89	4
90	2
91	56
92	19
93	60
94	22
95	62
96	2
103	22
104	1
105	13
106	5
107	72
108	15
109	201
110	487
111	32
112	1
118	2
119	9
120	1
121	21
122	4
123	98
124	7
125	1
133	2
134	1
135	25
136	97
137	9
147	2
148	2
149	25
150	3
162	9
163	3
165	45
166	92
167	7
178	2
179	53
180	4
191	1
192	30
193	2
222	287
223	37
224	3
