Mass Spectrum: Bicyclo[3.2.1]octan-6-ol, exo-
Formula: C8H14O
CAS: 64170-86-1
Molecular weight: 126
m/z	intensity
33	1
34	1
35	3
36	1
37	6
38	41
39	374
40	88
41	476
42	85
43	190
44	66
45	39
46	2
47	6
48	4
49	4
50	25
51	59
52	33
53	158
54	424
55	335
56	61
57	205
58	22
59	4
60	3
61	1
62	5
63	13
64	5
65	61
66	158
67	999
68	89
69	80
70	150
71	73
72	6
73	2
74	2
75	1
77	89
78	129
79	576
80	279
81	187
82	470
83	192
84	52
85	31
86	2
87	2
89	1
90	1
91	43
92	18
93	349
94	38
95	103
96	14
97	68
98	20
99	3
101	0
103	1
104	0
105	3
107	36
108	741
109	69
110	4
111	22
112	3
113	1
114	0
119	0
121	0
122	0
123	0
124	3
125	4
126	50
127	5
128	1
