Mass Spectrum: D-Mannitol, hexaacetate
Formula: C18H26O12
CAS: 642-00-2
Molecular weight: 434
m/z	intensity
41	8
42	20
43	999
44	44
45	20
55	8
60	12
61	8
68	16
69	16
73	28
85	44
86	28
97	44
98	16
99	8
103	84
110	28
111	20
115	164
116	32
127	64
128	80
129	8
139	120
140	12
145	112
146	8
152	20
153	28
157	80
158	20
170	76
171	8
175	20
187	124
188	12
199	8
212	12
217	60
259	68
260	12
289	44
361	20
