Mass Spectrum: Esaprazole
Formula: C12H23N3O
CAS: 64204-55-3
Molecular weight: 225
m/z	intensity
15	3
18	2
26	2
27	10
28	36
29	22
30	22
31	1
38	1
39	12
40	4
41	55
42	72
43	39
44	59
45	3
49	1
50	2
51	2
52	2
53	7
54	19
55	55
56	230
57	32
58	33
59	8
60	17
61	1
65	1
66	1
67	13
68	14
69	16
70	116
71	14
72	7
73	1
75	1
77	1
78	1
79	4
80	3
81	6
82	9
83	22
84	34
85	55
86	4
87	7
94	1
95	2
96	3
97	36
99	999
100	66
101	5
110	1
111	1
112	11
113	4
114	1
123	1
124	1
125	1
126	2
127	1
139	2
140	1
141	2
142	1
156	2
157	63
158	5
167	1
169	14
170	2
181	1
182	10
183	85
184	9
185	1
195	8
196	11
197	1
207	1
208	5
209	1
223	1
225	3
226	1
