Mass Spectrum: Aniline, 4-iodo-N-(4-fluorobenzylideno)-
Formula: C13H9FIN
CAS: 64222-87-3
Molecular weight: 325
m/z	intensity
37	78
38	213
39	246
40	25
41	34
42	27
44	57
45	16
46	5
47	1
49	33
50	862
51	305
52	59
53	6
54	4
55	21
56	25
57	184
58	13
59	4
60	4
61	66
62	176
63	348
64	125
65	24
66	2
68	47
69	71
70	58
71	10
73	47
74	260
75	436
76	999
77	157
78	11
80	16
81	98
82	39
83	28
85	82
86	39
87	35
88	42
89	40
90	35
91	21
92	13
93	17
94	83
95	145
96	94
97	8
99	129
100	20
101	17
102	88
103	37
105	25
107	307
108	92
109	11
119	20
120	24
121	84
122	49
123	9
124	3
127	157
128	24
139	12
140	2
141	4
144	14
145	23
146	26
147	4
150	14
151	55
152	18
153	3
169	32
170	143
171	79
172	15
173	1
174	0
177	18
178	10
196	31
197	134
198	91
199	15
200	1
203	156
204	11
205	0
219	1
229	7
230	58
231	5
306	0
307	1
323	14
324	235
325	472
326	61
327	4
328	0
