Mass Spectrum: Methyl 5-O-acetyl-2,3,6-tri-O-methyl-.alpha.-D-mannofuranoside
Formula: C12H22O7
CAS: 64244-05-9
Molecular weight: 278
m/z	intensity
41	68
43	129
44	52
45	279
55	52
57	43
58	55
59	162
61	37
69	809
71	149
73	159
75	999
76	29
85	93
87	129
88	939
89	27
101	689
111	10
112	10
113	32
115	14
117	12
118	15
119	13
129	15
131	15
141	20
145	26
155	6
156	8
157	5
161	319
173	49
185	15
216	135
247	5
