Mass Spectrum: Cyclohexane, 2-iodo-4-methyl-1-(1-methylethyl)-
Formula: C10H19I
CAS: 64240-81-9
Molecular weight: 266
m/z	intensity
26	5
27	159
28	11
29	137
30	3
31	0
34	0
36	0
37	0
38	3
39	134
40	29
41	456
42	30
43	268
44	9
45	31
46	0
47	0
50	4
51	16
52	11
53	90
54	74
55	816
56	50
57	287
58	13
59	3
60	0
62	1
63	3
64	0
65	22
66	10
67	136
68	44
69	436
70	30
71	45
72	6
73	63
74	3
75	0
76	0
77	33
78	7
79	46
80	11
81	180
82	36
83	999
84	65
85	4
89	0
91	16
92	1
93	12
94	7
95	114
96	26
97	164
98	12
99	1
102	0
103	0
104	0
105	1
106	0
107	2
108	0
109	16
110	6
111	5
112	0
113	0
115	0
117	0
119	0
121	1
122	1
123	35
124	5
125	1
127	13
128	14
129	0
135	0
137	16
138	14
139	475
140	49
141	2
266	26
267	3
