Mass Spectrum: Methyl 5,6-di-O-acetyl-2,3-di-O-methyl-.alpha.-D-mannofuranoside
Formula: C13H22O8
CAS: 64244-12-8
Molecular weight: 306
m/z	intensity
43	499
45	199
71	126
73	113
74	117
75	689
85	131
87	72
88	999
89	30
101	329
111	22
112	54
113	63
116	43
117	43
127	22
129	46
141	58
145	117
155	17
161	140
169	8
172	9
173	13
177	13
183	8
201	31
204	3
211	1
214	10
215	7
231	6
233	33
243	3
246	2
247	1
275	9
