Mass Spectrum: Quinoxaline, 2,3-bis(4-methyl-1-piperazinyl)-6-nitro-
Formula: C18H25N7O2
CAS: 64262-08-4
Molecular weight: 371
m/z	intensity
33	5
34	6
36	4
37	1
38	4
39	14
40	46
42	526
43	382
44	122
45	6
46	1
47	2
48	1
50	7
51	5
52	7
53	8
54	26
55	41
56	133
57	85
58	128
59	5
60	1
61	1
62	4
63	8
64	7
65	8
66	5
67	10
68	16
70	999
71	119
72	159
73	16
74	3
75	10
76	6
77	7
78	5
79	6
80	6
82	125
83	297
84	67
85	23
86	26
87	2
88	4
89	6
90	8
91	6
92	4
93	3
94	6
95	9
96	16
97	37
98	83
99	26
100	8
101	23
102	12
103	8
104	5
105	6
106	3
107	2
108	3
109	3
110	2
111	4
112	7
113	6
114	4
115	12
116	11
117	9
118	6
119	11
121	1
123	1
124	1
125	2
126	3
127	6
128	22
129	15
130	11
131	5
132	4
133	3
134	4
135	2
136	1
140	2
141	12
142	10
143	11
144	9
145	4
146	2
147	1
148	1
149	7
150	1
152	1
154	2
155	6
156	10
157	15
158	6
159	4
160	3
161	1
163	2
164	12
167	1
168	5
169	12
170	13
171	16
172	6
173	5
174	4
175	9
176	1
180	1
181	3
182	10
183	17
184	16
185	14
186	11
187	4
188	9
189	5
190	3
194	1
195	4
196	9
197	9
198	23
199	12
200	10
201	4
202	2
203	2
204	2
205	3
208	2
209	4
210	13
211	6
212	14
213	5
214	11
215	7
216	6
217	3
218	7
219	2
220	1
222	1
223	2
224	8
225	4
226	6
227	4
228	8
229	8
230	20
231	13
232	4
233	1
237	1
238	3
239	3
240	4
241	4
242	8
244	74
245	12
246	3
252	1
253	2
254	4
255	6
256	21
257	7
258	13
259	3
268	2
269	4
270	10
271	12
272	5
273	1
281	2
282	1
283	4
284	3
285	8
286	9
287	3
288	7
289	1
296	2
297	4
299	27
301	155
302	24
303	2
311	6
312	2
313	4
314	3
315	5
316	2
326	3
327	2
341	10
342	1
368	2
369	4
371	101
372	21
373	2
