Mass Spectrum: 2H-Benzotriazole, 5-nitro-2-phenyl-, 3-oxide
Formula: C12H8N4O3
CAS: 64264-32-0
Molecular weight: 256
m/z	intensity
30	42
51	27
55	1
56	1
57	4
63	5
64	7
65	16
66	2
70	2
71	4
72	0
75	19
76	5
77	999
78	63
79	4
80	5
83	1
84	1
85	2
91	17
92	3
93	6
100	0
101	0
102	3
103	8
104	2
105	191
106	14
113	0
114	1
115	3
125	0
126	3
127	8
128	5
129	1
139	16
140	14
141	6
142	5
143	0
151	19
152	25
153	12
154	18
155	6
156	0
164	1
165	1
166	5
167	2
168	0
178	0
179	9
180	2
181	4
182	6
183	1
194	5
195	0
210	22
211	3
212	0
223	1
224	3
225	0
226	0
227	4
228	0
240	60
241	9
256	394
257	58
258	6
259	1
