Mass Spectrum: 5,10-Pentadecadienal, (E,E)-
Formula: C15H26O
CAS: 64275-42-9
Molecular weight: 222
m/z	intensity
29	330
41	950
55	999
67	920
80	890
95	390
110	250
121	130
135	50
149	30
161	10
178	30
193	10
205	10
222	10
