Mass Spectrum: 10-Pentadecen-5-yn-1-ol, (E)-
Formula: C15H26O
CAS: 64275-59-8
Molecular weight: 222
m/z	intensity
29	340
41	999
55	890
67	910
79	860
91	700
107	440
119	310
133	230
149	440
161	120
179	40
191	20
204	10
222	10
