Mass Spectrum: 5,10-Pentadecadienal, (Z,Z)-
Formula: C15H26O
CAS: 64275-49-6
Molecular weight: 222
m/z	intensity
29	350
41	999
55	970
67	890
80	800
95	410
110	200
121	130
135	50
148	30
161	20
178	30
193	10
205	10
222	10
