Mass Spectrum: 5-Decene, 1-bromo-, (E)-
Formula: C10H19Br
CAS: 64275-66-7
Molecular weight: 218
m/z	intensity
27	170
41	590
55	999
69	500
83	350
97	260
109	40
135	80
148	150
150	150
162	60
164	60
218	60
220	60
