Mass Spectrum: 5,10-Pentadecadienoic acid, (Z,Z)-
Formula: C15H26O2
CAS: 64275-69-0
Molecular weight: 238
m/z	intensity
29	350
41	999
55	960
67	870
81	999
95	460
110	240
121	80
140	190
149	60
168	30
178	20
205	20
238	50
