Mass Spectrum: N-[2-(4-Methoxyphenylthio)ethyl]alanine
Formula: C12H17NO3S
CAS: 64276-43-3
Molecular weight: 255
m/z	intensity
42	151
43	118
44	132
45	158
56	999
70	184
74	368
95	112
96	92
102	783
124	78
139	586
154	855
155	79
255	65
