Mass Spectrum: 5,10-Pentadecadiyn-1-ol
Formula: C15H24O
CAS: 64275-50-9
Molecular weight: 220
m/z	intensity
27	300
41	730
55	430
67	500
79	680
91	999
105	510
119	560
131	310
145	120
161	90
177	180
191	10
205	10
220	10
