Mass Spectrum: 5,10-Pentadecadiyne, 1-chloro-
Formula: C15H23Cl
CAS: 64275-44-1
Molecular weight: 238
m/z	intensity
27	320
41	770
55	360
67	470
79	540
91	999
105	620
119	710
133	230
147	180
161	140
181	50
195	100
209	40
223	10
238	10
