Mass Spectrum: 5,10-Pentadecadien-1-ol, (Z,Z)-
Formula: C15H28O
CAS: 64275-51-0
Molecular weight: 224
m/z	intensity
29	280
41	880
55	930
67	999
81	760
95	440
110	190
121	80
135	100
149	30
163	10
178	10
192	10
206	10
224	10
