Mass Spectrum: 5,10-Pentadecadienoic acid, (E,Z)-
Formula: C15H26O2
CAS: 64275-70-3
Molecular weight: 238
m/z	intensity
29	300
41	880
55	810
67	800
81	999
95	410
110	240
121	80
140	210
149	50
168	30
181	10
205	10
238	60
