Mass Spectrum: N-[2-(4-Methylphenylthio)ethyl]alanine
Formula: C12H17NO2S
CAS: 64276-34-2
Molecular weight: 239
m/z	intensity
39	59
42	145
43	90
44	197
45	204
56	999
57	79
65	92
70	158
71	59
74	368
77	132
79	105
91	178
102	776
123	375
138	934
139	92
151	105
239	26
