Mass Spectrum: 5,10-Pentadecadienal, (Z,E)-
Formula: C15H26O
CAS: 64275-58-7
Molecular weight: 222
m/z	intensity
29	270
41	870
55	999
67	880
80	910
95	470
110	270
124	150
135	70
147	40
161	30
178	40
205	20
222	10
