Mass Spectrum: 5,10-Pentadecadienoic acid, (E,E)-
Formula: C15H26O2
CAS: 64275-68-9
Molecular weight: 238
m/z	intensity
29	310
41	980
55	930
67	860
81	999
95	440
110	300
121	100
140	240
149	70
168	40
181	20
205	70
238	70
