Mass Spectrum: 5,10-Pentadecadienal, (E,Z)-
Formula: C15H26O
CAS: 64275-54-3
Molecular weight: 222
m/z	intensity
29	290
41	910
55	950
67	900
80	999
95	430
110	290
124	160
135	70
148	30
161	20
178	50
204	10
222	10
