Mass Spectrum: 5-Decene, 1-bromo-, (Z)-
Formula: C10H19Br
CAS: 64275-63-4
Molecular weight: 218
m/z	intensity
27	160
41	550
55	999
69	460
83	330
97	240
109	40
135	80
148	130
150	130
162	50
164	50
218	50
220	50
