Mass Spectrum: d-Mannitol, 1-O-methyl-, pentaacetate
Formula: C17H26O11
CAS: 64282-54-8
Molecular weight: 406
m/z	intensity
27	5
28	3
29	11
30	0
31	9
33	2
38	0
39	3
40	0
41	6
42	11
43	999
44	19
45	93
46	2
47	0
50	0
51	0
52	1
53	2
54	1
55	6
56	2
57	5
58	3
59	7
60	4
61	6
62	0
65	0
66	0
67	1
68	6
69	18
70	4
71	8
72	1
73	19
74	5
75	7
76	0
77	0
78	0
79	1
80	3
81	9
82	3
83	3
84	2
85	21
86	14
87	93
88	6
89	1
93	1
94	1
95	1
96	1
97	36
98	27
99	17
100	5
101	7
102	4
103	28
104	1
105	4
109	2
110	10
111	12
112	5
113	4
114	1
115	79
116	11
117	16
118	1
119	0
122	0
123	0
124	7
125	15
126	2
127	16
128	17
129	106
130	9
131	2
132	0
133	0
138	0
139	71
140	14
141	6
142	22
143	8
144	1
145	30
146	1
147	7
148	0
149	0
150	0
151	0
152	9
153	9
154	1
155	1
156	1
157	58
158	10
159	19
160	1
161	0
166	1
167	1
169	1
170	14
171	8
172	1
173	0
175	2
177	0
179	0
180	0
181	0
182	1
183	7
184	48
185	8
186	1
187	16
188	1
189	4
190	0
195	0
196	0
197	0
198	1
199	6
200	8
201	3
202	2
203	0
211	0
212	1
213	2
214	0
215	0
217	9
218	1
226	5
227	0
229	0
230	0
231	6
232	0
240	0
241	0
242	8
243	1
244	11
245	1
246	0
257	0
258	0
259	22
260	3
261	5
262	0
272	0
273	0
286	7
287	1
288	0
289	3
290	0
300	0
303	0
333	2
334	0
346	0
347	1
361	4
362	0
