Mass Spectrum: (-)-Pinane-3-carboxylic acid
Formula: C11H18O2
CAS: 64284-84-0
Molecular weight: 182
m/z	intensity
26	9
27	327
29	291
30	9
31	14
38	7
39	264
40	141
41	999
42	62
43	220
44	6
45	49
47	6
50	8
51	44
52	25
53	189
54	45
55	769
56	129
57	89
58	8
59	66
63	10
64	5
65	62
66	26
67	259
68	101
69	573
70	86
71	38
73	29
77	143
78	25
79	159
80	57
81	607
82	111
83	916
84	109
85	26
86	9
87	24
88	10
91	91
92	45
93	355
94	105
95	420
96	104
97	43
98	9
99	91
100	53
101	5
103	6
105	22
106	7
107	88
108	24
109	220
110	56
111	209
112	34
113	51
114	115
115	10
119	8
121	145
122	56
123	40
124	18
125	111
126	198
127	126
128	16
133	6
135	42
136	320
137	336
138	47
139	281
140	93
141	30
146	10
149	13
153	29
154	6
164	75
165	16
167	69
168	8
182	124
183	14
