Mass Spectrum: 1H-Indole-3-methanamine, 5,7-dibromo-N,N-diethyl-
Formula: C13H16Br2N2
CAS: 64299-08-7
Molecular weight: 358
m/z	intensity
58	999
72	500
127	90
128	130
207	60
208	40
209	60
286	350
288	700
290	350
343	10
345	20
347	10
358	40
360	80
362	40
