Mass Spectrum: 2-Amino-3-methoxy-2-methyl-propionic acid
Formula: C5H11NO3
CAS: 64298-94-8
Molecular weight: 133
m/z	intensity
26	6
27	27
28	96
29	62
30	45
31	15
33	8
38	5
39	34
40	18
41	92
42	816
43	62
44	30
45	168
46	7
52	2
53	3
54	11
55	8
56	323
57	171
58	18
59	15
60	7
61	3
70	7
71	68
72	21
73	16
74	14
83	5
84	4
87	7
88	999
89	42
90	3
101	37
102	2
103	12
134	2
