Mass Spectrum: 3-(Phenoxy)propylamine, N-t-butyl-.beta.,3,4-trihydroxy-
Formula: C13H21NO4
CAS: 64309-38-2
Molecular weight: 255
m/z	intensity
41	160
42	90
43	44
44	37
45	10
46	2
49	4
50	8
51	39
52	36
53	44
54	14
55	58
56	85
57	262
58	109
60	80
62	6
63	11
64	3
65	7
66	2
67	4
68	8
69	23
70	127
71	147
72	44
73	2
74	53
75	3
77	7
79	38
80	19
81	27
82	9
83	3
84	30
86	999
87	28
88	1
89	1
90	2
91	8
92	0
93	7
94	2
95	3
96	17
97	26
98	23
99	1
100	15
101	0
105	9
106	0
107	26
108	5
109	28
110	8
111	4
112	4
114	54
115	4
116	28
117	3
119	5
120	34
123	3
124	2
125	45
126	90
127	9
128	2
130	16
131	3
132	4
133	0
137	3
139	25
140	5
146	0
147	11
148	4
151	3
152	1
153	0
155	1
163	2
165	18
166	2
168	8
169	1
180	1
181	1
199	0
200	2
211	14
212	2
222	2
237	2
239	1
240	220
241	30
242	4
246	1
254	1
255	267
256	58
257	9
