Mass Spectrum: 2-Butyl-.delta.1-pyrroline
Formula: C8H15N
CAS: 64319-86-4
Molecular weight: 125
m/z	intensity
40	46
41	104
42	33
54	45
55	123
67	51
68	84
69	39
82	373
83	999
84	122
85	26
94	19
96	105
97	32
110	150
111	20
124	46
125	19
