Mass Spectrum: (+)-Dibenzoyl-L-tartaric acid anhydride
Formula: C18H12O7
CAS: 64339-95-3
Molecular weight: 340
m/z	intensity
14	1
15	1
16	2
26	2
27	6
28	4
29	1
37	5
38	11
39	12
40	2
41	3
42	8
43	9
44	55
45	6
47	5
49	4
50	40
51	100
52	12
53	4
55	1
57	2
60	1
61	4
62	1
63	3
64	1
65	7
66	4
67	1
68	1
69	7
70	3
71	2
73	4
74	16
75	10
76	21
77	378
78	32
79	2
86	3
91	1
92	1
93	2
94	8
95	1
103	1
104	6
105	999
106	81
107	5
121	3
122	398
123	37
124	3
139	1
149	1
156	1
162	2
198	1
209	2
227	5
228	1
236	1
242	1
268	1
340	1
