Mass Spectrum: 6(2H)-Benzofuranone, 3,5-dihydro-5,7-dimethoxy-3-methyl-5-(2-propenyl)-2-(3,4,5-trimethoxyphenyl)-, [2S-(2.alpha.,3.beta.,5.beta.)]-
Formula: C23H28O7
CAS: 64343-02-8
Molecular weight: 416
m/z	intensity
41	500
43	500
47	600
57	500
77	300
105	250
119	999
149	300
165	250
179	250
196	150
329	150
370	400
416	200
