Mass Spectrum: Cyclopropane, [(1-propenyloxy)methyl]-
Formula: C7H12O
CAS: 64340-98-3
Molecular weight: 112
m/z	intensity
39	340
41	160
53	130
55	999
56	120
57	130
58	190
70	290
112	330
