Mass Spectrum: Benzoin methyl ether phenyl hydrazone
Formula: C21H20N2O
CAS: 64357-11-5
Molecular weight: 316
m/z	intensity
77	999
79	95
92	925
93	185
104	158
105	709
121	602
178	263
179	757
180	211
193	25
194	41
195	104
207	67
283	210
284	288
316	367
