Mass Spectrum: Pyrrolidine, 1-[(4-methylphenyl)sulfonyl]-
Formula: C11H15NO2S
CAS: 6435-78-5
Molecular weight: 225
m/z	intensity
15	13
26	2
27	24
28	67
29	4
30	9
32	1
37	1
38	6
39	86
40	12
41	125
42	472
43	124
44	7
45	5
48	1
49	1
50	12
51	28
52	8
53	8
54	4
55	15
56	4
60	1
61	2
62	10
63	47
64	14
65	190
66	11
67	6
68	35
69	18
70	999
71	64
72	1
74	3
75	4
76	11
77	17
78	7
79	8
80	6
81	1
85	1
86	3
87	2
88	1
89	52
90	27
91	656
92	184
93	12
95	1
102	1
103	2
104	2
105	36
106	4
107	11
108	11
109	1
111	2
112	2
115	1
116	1
117	6
118	16
119	3
120	2
121	2
122	1
123	1
130	3
131	1
132	6
133	4
134	1
139	25
140	3
141	1
143	1
144	1
146	2
155	255
156	29
157	14
158	2
159	1
160	49
161	21
162	2
184	1
223	3
224	301
225	603
226	92
227	33
228	4
