Mass Spectrum: N-Benzylglycine ethyl ester
Formula: C11H15NO2
CAS: 6436-90-4
Molecular weight: 193
m/z	intensity
26	4
27	17
28	23
29	27
30	11
31	3
38	3
39	36
40	4
41	21
42	28
43	11
44	4
45	3
50	9
51	23
52	7
53	2
54	0
55	3
56	2
57	6
58	2
59	4
60	19
61	3
62	4
63	20
64	7
65	102
66	6
67	1
69	3
70	2
71	2
73	0
74	2
75	2
76	3
77	15
78	5
79	14
80	1
81	2
83	2
85	1
86	1
87	1
88	3
89	29
90	15
91	999
92	97
93	5
95	1
97	1
103	2
104	7
105	3
106	272
107	24
108	1
109	1
111	1
115	0
116	3
117	9
118	38
119	8
120	435
121	45
122	2
141	1
164	2
165	1
192	3
193	16
194	3
