Mass Spectrum: Ethane, 2-chloro-1-ethoxy-1-methoxy-
Formula: C5H11ClO2
CAS: 64362-62-5
Molecular weight: 138
m/z	intensity
26	20
27	154
28	60
29	320
30	11
31	73
32	7
33	300
34	2
35	2
36	12
38	3
39	3
41	3
42	29
43	437
44	48
45	74
46	1
49	51
50	13
51	16
52	5
57	12
58	31
59	10
60	4
61	999
62	25
63	10
65	4
71	3
72	7
75	5
76	1
77	19
78	10
79	309
80	9
81	96
82	2
88	1
89	618
90	25
91	5
92	8
93	449
94	16
95	146
96	5
106	1
107	142
108	7
109	60
110	2
111	2
137	1
