Mass Spectrum: 3-Cyclohexene-1-methanamine, .alpha.,.alpha.,4-trimethyl-
Formula: C10H19N
CAS: 64374-23-8
Molecular weight: 153
m/z	intensity
27	20
28	2
29	22
30	33
39	42
40	9
41	81
42	66
43	36
44	27
51	11
53	29
54	10
55	29
56	15
57	45
58	999
59	46
65	14
66	6
67	30
68	18
69	16
70	138
71	14
77	34
78	7
79	39
80	15
81	19
82	13
83	44
84	17
85	8
91	32
92	13
93	86
94	22
95	15
96	12
105	14
107	15
108	17
109	6
110	31
111	8
121	108
122	14
124	9
136	102
137	12
138	55
139	6
153	11
