Mass Spectrum: 1,3,4,6-Tetrathiapentalene-2,5-dione
Formula: C4O2S4
CAS: 64394-45-2
Molecular weight: 208
m/z	intensity
12	8
24	3
28	26
29	1
32	110
34	5
41	1
43	5
44	199
45	5
46	10
55	1
56	47
57	2
58	3
59	3
60	22
64	109
65	2
66	9
68	1
76	999
77	28
78	92
79	2
80	3
82	2
88	408
89	16
90	40
91	2
92	1
96	1
104	3
105	1
108	9
110	2
119	1
120	117
121	7
122	16
124	1
128	1
152	180
153	10
154	38
155	2
156	3
158	2
161	2
179	3
180	470
181	30
182	82
183	6
184	8
208	349
209	27
210	68
211	5
212	5
