Mass Spectrum: Benzene, 1-(1,5-dimethyl-4-hexenyl)-4-methyl-
Formula: C15H22
CAS: 644-30-4
Molecular weight: 202
m/z	intensity
26	3
27	106
31	8
37	3
38	8
39	157
40	13
41	538
42	27
43	17
50	11
51	44
52	16
53	55
54	13
55	297
56	17
58	10
62	6
63	26
64	15
65	83
66	9
67	54
68	14
69	172
70	10
71	8
74	4
75	8
76	7
77	117
78	32
79	56
81	3
82	10
83	173
84	11
89	21
90	5
91	211
92	29
93	49
94	7
95	61
96	10
97	3
102	7
103	48
104	38
105	475
106	31
107	5
109	4
110	13
115	81
116	22
117	142
118	54
119	999
120	236
121	33
122	6
127	4
128	17
129	18
130	8
131	218
132	743
133	140
134	14
135	4
141	5
142	4
143	11
144	4
145	231
146	50
147	4
152	3
155	4
159	24
160	4
187	10
202	233
203	41
204	5
