Mass Spectrum: Butanamide, 2-(dimethylamino)-N-[7-[(4-hydroxyphenyl)methyl]-3-(1-methylethyl)-5,8-dioxo-2-oxa-6,9-diazabicyclo[10.2.2]hexadeca-10,12,14,15-tetraen-4-yl]-3-methyl-
Formula: C30H40N4O5
CAS: 64408-10-2
Molecular weight: 536
m/z	intensity
77	81
78	43
85	452
97	269
100	999
107	278
135	304
136	200
190	60
232	21
260	9
353	9
394	21
493	60
521	13
536	17
