Mass Spectrum: N-(Trifluoroacetyl)pyrrolidine
Formula: C6H8F3NO
CAS: 6442-87-1
Molecular weight: 167
m/z	intensity
44	50
47	70
55	80
68	390
69	780
70	250
78	70
91	50
96	160
98	999
99	50
139	270
166	100
167	570
168	40
