Mass Spectrum: Methyl 3,7,11,15-tetramethylhexadec-2-enoate
Formula: C21H40O2
CAS: 64433-35-8
Molecular weight: 324
m/z	intensity
27	49
29	138
39	98
40	25
41	644
42	109
43	940
44	31
45	24
52	6
53	121
54	64
55	768
56	388
57	794
58	36
59	136
65	32
66	15
67	318
68	177
69	810
70	436
71	522
73	172
74	72
75	21
77	26
79	71
80	24
81	342
82	377
83	594
84	111
85	217
86	41
87	36
88	5
93	38
94	87
95	566
96	209
97	363
98	198
99	100
100	9
101	217
102	20
107	46
108	27
109	453
110	303
111	378
112	94
113	153
114	999
115	177
116	17
122	36
123	202
124	114
125	252
126	310
127	410
128	110
129	171
130	14
135	23
137	121
138	66
139	107
140	53
141	103
142	26
143	26
147	16
149	25
151	92
152	321
153	78
154	11
155	11
161	7
163	8
165	76
166	66
167	56
168	12
169	49
170	10
171	13
179	44
180	28
181	14
183	6
184	7
185	16
189	18
193	8
194	76
195	51
196	44
197	12
199	49
207	28
208	8
211	9
213	11
214	7
221	12
222	35
223	8
235	6
237	9
239	17
241	6
242	5
248	9
249	41
250	60
251	12
255	6
263	16
277	29
291	7
292	131
293	135
294	30
295	4
309	6
324	17
325	5
