Mass Spectrum: Arsenobetaine
Formula: C5H11AsO2
CAS: 64436-13-1
Molecular weight: 178
m/z	intensity
75	70
76	30
77	30
88	80
89	550
90	180
91	999
101	200
102	80
103	500
104	50
105	280
117	180
119	80
120	200
134	370
135	70
