Mass Spectrum: 2-(4-(But-2-yl)phenyl)propanoic acid
Formula: C13H18O2
CAS: 64451-76-9
Molecular weight: 206
m/z	intensity
15	65
16	12
17	81
18	273
19	3
26	17
27	359
28	52
29	125
30	4
31	4
37	4
38	17
39	306
40	33
41	517
42	35
43	403
44	23
45	159
46	5
50	44
51	134
52	40
53	62
54	8
55	65
56	11
57	117
58	13
59	3
60	6
61	5
62	17
63	86
64	27
65	143
66	16
67	10
68	3
69	13
70	8
71	14
72	4
73	9
74	14
75	22
76	25
77	196
78	86
79	79
80	8
81	5
83	6
84	5
87	9
88	6
89	75
91	999
92	89
93	34
94	3
97	5
98	4
101	10
102	43
103	130
104	78
105	188
107	659
108	53
109	5
115	287
116	82
117	575
118	365
119	650
120	70
121	8
127	23
128	61
129	43
130	14
131	57
132	9
133	27
134	4
135	5
141	8
142	3
143	6
145	54
146	10
147	9
148	3
149	7
150	5
159	12
161	905
162	122
163	815
164	198
165	21
191	11
206	332
207	49
208	4
