Mass Spectrum: Bis(4-nitrophenyl)phosphoric acid
Formula: C12H9N2O8P
CAS: 645-15-8
Molecular weight: 340
m/z	intensity
41	67
42	47
43	122
44	349
45	9
47	95
48	38
49	39
50	190
51	29
52	58
53	119
54	11
55	47
56	10
57	20
62	67
63	242
64	140
65	209
66	23
68	39
69	55
70	61
73	9
74	70
75	309
76	181
77	403
79	91
80	42
81	234
84	32
85	65
86	23
88	63
89	9
91	13
92	73
93	69
96	11
97	25
99	36
103	9
104	34
105	622
106	62
107	58
109	999
110	44
111	11
112	41
113	21
114	21
116	10
121	172
122	62
123	66
126	11
127	54
128	24
134	9
138	26
139	255
140	44
144	20
149	44
151	11
153	10
155	53
156	95
167	9
168	68
171	9
172	37
173	22
174	19
176	9
184	42
185	9
186	37
189	21
190	11
196	9
197	10
202	12
213	44
214	31
230	78
232	9
236	18
243	115
248	37
260	101
263	9
276	20
293	59
294	9
310	75
323	57
324	38
336	18
339	332
340	918
341	123
