Mass Spectrum: Benzeneethanethioamide
Formula: C8H9NS
CAS: 645-54-5
Molecular weight: 151
m/z	intensity
40	100
41	280
42	200
43	190
44	20
45	280
46	60
47	50
48	20
49	20
50	320
51	470
52	190
53	60
54	10
55	50
56	20
57	50
58	90
59	100
60	710
61	140
62	300
63	420
64	200
65	610
66	130
67	30
69	80
70	10
71	10
72	20
73	40
74	160
75	90
76	70
77	290
78	90
79	80
80	10
81	10
82	10
83	10
84	10
85	10
86	40
87	50
88	30
89	570
90	370
91	999
92	890
93	260
102	20
103	10
104	140
105	10
106	50
116	80
117	280
118	200
119	40
134	490
135	60
151	960
152	310
153	160
154	10
