Mass Spectrum: 3-(2-Cyclopenten-1-yl)propanal
Formula: C8H12O
CAS: 64504-73-0
Molecular weight: 124
m/z	intensity
24	1
25	4
26	24
27	91
28	29
29	211
30	2
31	2
33	0
34	0
35	0
36	1
37	15
38	33
39	160
40	32
41	46
42	27
43	106
44	174
45	99
46	2
47	0
48	1
49	10
50	71
51	111
52	96
53	54
54	15
55	2
56	0
57	0
58	0
60	0
61	4
62	8
63	19
64	4
65	48
66	10
67	2
68	0
69	0
71	0
72	0
73	5
74	16
75	25
76	11
77	306
78	127
79	999
80	519
81	43
82	1
87	0
89	2
90	1
91	64
92	4
93	0
94	1
95	1
101	0
102	5
103	11
104	10
105	17
106	32
107	4
108	0
109	1
115	0
118	0
119	0
120	0
122	0
123	0
124	22
125	1
