Mass Spectrum: 4H-Pyrido[1,2-a]pyrimidin-4-one, 7-bromo-2-methyl-
Formula: C9H7BrN2O
CAS: 64500-11-4
Molecular weight: 238
m/z	intensity
33	14
36	667
37	176
38	472
39	999
41	97
42	36
44	101
48	5
49	33
50	249
51	146
52	99
53	41
55	132
57	30
59	11
61	15
62	46
63	126
64	189
65	49
66	45
67	114
68	21
69	11
70	9
71	7
72	5
74	9
75	54
76	330
77	158
78	79
79	58
81	23
82	17
83	5
84	4
85	5
86	4
87	4
88	9
89	11
90	27
91	35
92	47
94	13
95	5
96	2
97	3
98	2
99	4
101	4
103	40
104	43
105	30
106	25
107	7
108	9
109	1
110	1
112	9
116	15
117	27
119	45
120	9
121	1
123	1
125	1
129	24
131	141
132	14
133	1
135	1
141	3
142	5
143	5
144	9
145	5
146	3
147	2
148	1
149	2
152	1
156	198
157	64
158	191
159	59
168	7
170	6
171	10
172	3
173	3
174	1
182	7
183	18
184	6
185	14
186	1
196	13
197	11
198	9
199	12
200	2
201	3
206	2
209	240
210	436
211	254
212	378
213	33
223	7
224	1
225	7
235	1
238	330
239	58
240	257
241	26
242	2
