Mass Spectrum: Tetramethyl diphosphane-oxide-sulfide
Formula: C4H12OP2S
CAS: 64516-41-2
Molecular weight: 170
m/z	intensity
77	568
93	999
155	666
170	565
