Mass Spectrum: Dodecanamide, 5-hydroxy-N-phenyl-, (S)-
Formula: C18H29NO2
CAS: 64527-03-3
Molecular weight: 291
m/z	intensity
29	54
41	140
42	75
43	120
55	120
56	83
57	90
65	74
66	140
69	86
70	92
71	120
77	49
83	43
92	110
93	999
94	120
99	360
114	50
120	25
135	180
192	53
273	49
291	38
