Mass Spectrum: .alpha.-d-Erythro-hexopyranoside, methyl 2,3-dideoxy-, bis(4-nitrobenzoate)
Formula: C21H20N2O10
CAS: 64526-51-8
Molecular weight: 460
m/z	intensity
25	1
26	4
27	21
28	4
29	34
30	19
31	14
33	4
35	1
36	2
37	2
38	5
39	27
40	5
41	111
42	15
43	65
44	11
45	61
46	2
47	3
48	1
49	17
50	48
51	17
52	4
53	17
54	6
55	55
56	25
57	60
58	999
59	77
60	11
61	6
62	2
63	10
64	18
65	40
68	9
69	130
70	20
71	88
72	9
73	10
74	15
75	45
76	110
77	18
78	2
79	5
80	2
81	34
82	10
83	28
84	51
85	29
86	9
87	2
88	1
89	1
90	3
91	8
92	82
93	13
94	23
95	60
96	14
97	21
98	7
99	27
100	3
101	83
102	6
103	17
104	188
105	23
106	3
107	4
108	2
109	12
110	4
111	14
112	5
113	37
114	3
115	2
116	1
117	1
118	1
119	4
120	101
121	28
122	8
123	6
124	2
125	9
126	90
127	13
128	1
129	2
130	0
131	1
132	1
133	2
134	46
135	10
136	2
137	34
138	4
139	4
140	1
141	4
142	1
143	5
144	0
145	1
146	1
147	1
148	1
149	20
150	730
151	73
152	10
153	3
154	1
155	3
157	1
161	1
162	1
163	2
166	1
167	21
168	6
169	2
171	1
176	1
177	29
178	4
179	3
180	2
181	2
182	0
183	1
185	1
190	1
191	1
192	1
193	30
194	4
195	1
196	1
197	1
205	1
206	1
207	1
208	1
209	1
210	2
211	1
219	1
220	3
222	2
223	1
233	4
234	2
235	11
236	1
239	1
248	18
249	2
250	3
251	89
252	13
253	2
261	17
262	14
263	3
264	1
267	26
268	3
278	1
280	25
281	4
284	0
293	15
294	3
300	0
372	0
399	0
400	4
401	1
413	0
414	0
429	70
430	19
431	4
444	2
459	1
