Mass Spectrum: Phosphoric acid, tri(2-isopropylphenyl)ester
Formula: C27H33O4P
CAS: 64532-95-2
Molecular weight: 452
m/z	intensity
26	3
27	11
28	1
38	3
39	30
40	4
41	57
42	4
43	26
50	9
51	24
52	6
53	5
62	3
63	12
64	3
65	34
66	5
74	4
75	5
76	7
77	119
78	98
79	32
89	12
90	8
91	343
92	35
93	6
94	8
95	13
99	3
101	3
102	23
103	192
104	50
105	25
106	3
107	31
108	3
115	103
116	34
117	312
118	999
119	122
120	22
121	51
122	5
128	4
129	5
131	6
132	4
133	5
134	10
135	18
136	16
137	5
141	5
149	17
152	5
153	6
163	10
165	32
166	5
167	9
175	59
176	6
177	4
178	37
179	27
180	5
181	10
182	5
183	11
187	7
189	6
190	5
191	8
192	4
193	5
194	2
195	4
197	12
199	8
201	22
202	6
203	8
204	4
205	5
211	3
214	3
215	33
216	21
217	37
218	4
221	9
249	5
251	264
252	36
253	5
259	4
261	3
263	4
273	5
275	9
277	53
278	8
291	88
292	19
293	135
294	23
301	5
303	5
317	10
318	2
319	38
320	6
333	24
334	67
335	472
336	93
337	13
353	45
354	9
367	49
368	11
379	4
393	3
395	23
396	6
409	81
410	35
411	8
436	5
437	56
438	16
450	8
451	25
452	994
453	303
454	56
455	7
