Mass Spectrum: .alpha.-D-Erythro-Hexopyranoside, methyl 2,3-dideoxy-, diacetate
Formula: C11H18O6
CAS: 64551-84-4
Molecular weight: 246
m/z	intensity
43	496
44	33
71	77
81	26
82	23
83	30
98	23
99	6
100	999
101	67
102	33
110	26
111	328
112	30
142	241
143	43
152	6
153	140
154	20
171	16
185	10
213	16
