Mass Spectrum: 2(1H)-Pyridinone, 1,5-dimethyl-
Formula: C7H9NO
CAS: 6456-93-5
Molecular weight: 123
m/z	intensity
27	127
39	157
41	77
42	326
50	61
51	92
52	77
53	176
54	54
80	65
94	999
95	261
123	495
124	100
