Mass Spectrum: t-Butyl n-hexyl disulfide
Formula: C10H22S2
CAS: 64580-59-2
Molecular weight: 206
m/z	intensity
15	1
25	0
26	1
27	41
29	115
30	5
33	0
34	0
35	1
37	0
38	1
39	40
40	5
41	218
42	21
43	151
44	9
45	12
46	3
47	9
48	0
49	6
50	0
51	1
52	0
53	8
54	4
55	52
56	40
57	999
58	46
59	15
60	4
61	4
62	0
63	0
64	3
65	1
66	1
67	1
68	0
69	4
70	0
71	2
72	0
73	5
74	2
75	1
76	0
77	0
78	0
79	8
80	0
81	2
82	0
83	4
84	4
85	56
86	3
87	4
88	2
89	1
90	0
91	0
92	0
93	1
95	0
97	0
101	0
102	0
103	0
105	0
106	0
107	1
108	0
109	0
115	1
116	0
117	20
118	1
119	1
121	0
122	0
135	0
136	0
149	1
150	37
151	3
152	3
153	0
178	0
191	0
192	0
205	1
206	35
207	4
208	3
209	0
