Mass Spectrum: 2,7-Octadien-1-amine, N,N-diethyl-, (E)-
Formula: C12H23N
CAS: 64596-17-4
Molecular weight: 181
m/z	intensity
26	35
27	286
28	288
29	436
30	223
32	1
36	1
37	4
38	10
39	224
40	33
41	428
42	297
43	88
44	69
45	2
46	1
48	0
49	2
50	9
51	22
52	18
53	99
54	83
55	349
56	261
57	53
58	999
59	37
60	1
61	0
62	1
63	4
64	1
65	34
66	18
67	824
68	85
69	25
70	46
71	60
72	108
73	194
74	17
75	2
76	1
77	22
78	6
79	36
80	26
81	101
82	37
83	6
84	34
85	20
86	439
87	28
88	1
89	1
91	13
92	4
93	10
94	14
95	8
96	62
97	8
98	39
99	30
100	3
103	0
104	0
105	3
106	2
107	10
108	11
109	113
110	61
111	7
112	118
113	11
114	1
120	1
122	3
123	1
124	22
125	6
126	42
127	11
128	0
136	3
137	0
138	63
139	6
140	9
141	0
150	1
151	0
152	16
153	3
164	3
166	537
167	63
168	4
177	0
179	1
180	48
181	85
182	10
183	0
