Mass Spectrum: 1,3-Oxathiane
Formula: C4H8OS
CAS: 646-12-8
Molecular weight: 104
m/z	intensity
26	60
27	170
28	130
29	170
31	60
39	210
40	40
41	790
42	90
44	40
45	420
46	999
47	250
48	140
57	60
58	50
59	110
60	40
61	70
71	80
73	110
74	720
75	70
76	130
103	170
104	335
105	20
106	20
