Mass Spectrum: 2H-Pyran, 2-(8-dodecynyloxy)tetrahydro-
Formula: C17H30O2
CAS: 64604-68-8
Molecular weight: 266
m/z	intensity
41	136
42	16
43	66
44	7
45	3
47	2
49	2
50	2
51	8
52	12
53	38
54	44
55	182
56	68
57	63
58	4
59	3
61	0
63	3
64	1
65	20
66	13
67	232
68	32
69	60
70	8
71	16
72	1
73	1
74	2
75	0
77	34
78	8
79	101
80	24
81	181
82	137
83	60
84	92
85	999
86	68
87	5
88	0
89	0
91	30
92	5
93	55
94	20
95	118
96	80
97	50
98	19
99	6
100	18
101	255
102	15
103	4
104	0
105	8
106	2
107	28
108	10
109	94
110	23
111	18
112	6
113	2
114	1
115	13
116	1
117	1
119	5
120	1
121	35
122	11
123	38
124	11
125	12
126	6
127	3
128	2
129	1
131	1
133	5
134	4
135	16
136	7
137	15
138	7
139	14
140	8
141	2
142	1
143	0
145	1
147	4
148	1
149	6
150	2
151	14
152	5
153	25
154	4
155	2
156	3
157	0
159	0
161	4
162	2
163	10
164	3
165	17
166	16
167	8
168	2
169	6
170	1
173	0
175	3
176	1
177	2
178	0
179	7
180	8
181	4
182	3
183	4
184	0
185	2
187	1
189	3
190	0
191	1
192	0
193	23
194	7
195	17
196	3
197	1
199	1
201	0
203	1
205	4
206	1
207	3
208	1
209	5
210	1
211	0
215	0
219	2
220	1
221	2
222	11
223	43
224	7
225	1
233	0
235	1
237	15
238	3
248	1
249	1
265	6
266	11
267	3
268	1
