Mass Spectrum: Benzene, 1-[(2-chloroethyl)sulfonyl]-4-nitro-
Formula: C8H8ClNO4S
CAS: 6461-63-8
Molecular weight: 249
m/z	intensity
63	999
64	72
65	253
74	76
75	312
76	250
77	138
92	99
122	250
123	89
139	12
140	10
141	38
170	66
185	156
186	213
187	172
188	31
189	31
213	50
249	142
251	51
