Mass Spectrum: Benzene, 1,1'-(1,2-diisocyano-1,2-dimethyl-1,2-ethanediyl)bis-
Formula: C18H16N2
CAS: 64630-43-9
Molecular weight: 260
m/z	intensity
24	1
25	1
26	21
27	160
28	27
29	2
30	8
31	1
33	0
34	0
35	0
36	0
37	6
38	17
39	98
40	9
41	23
42	47
43	4
44	5
45	1
46	0
47	0
48	0
50	69
51	249
52	69
53	22
54	7
55	4
56	9
57	2
58	3
59	2
60	1
61	5
62	19
63	66
64	16
65	48
66	7
67	6
68	2
69	3
70	1
71	0
72	0
73	2
74	21
75	37
76	71
77	462
78	147
79	48
80	6
81	7
82	27
85	2
86	3
87	8
88	22
89	104
90	22
91	126
92	10
93	5
94	32
95	27
98	2
99	4
100	7
101	35
102	103
103	738
104	341
105	128
106	38
107	5
108	7
109	3
110	1
111	0
112	1
113	6
114	6
115	181
116	94
117	38
118	24
119	78
120	26
121	4
122	2
123	3
124	0
125	1
126	8
127	22
128	65
129	90
130	999
131	331
132	44
133	14
134	6
135	1
136	1
137	0
138	1
139	10
140	10
141	9
142	15
143	10
144	12
145	14
146	5
147	3
148	0
149	0
150	5
151	10
152	24
153	7
154	4
155	3
156	11
157	31
158	17
159	7
160	1
161	0
162	1
163	6
164	11
165	65
166	13
167	7
168	1
169	3
170	1
171	1
172	0
173	2
174	1
175	2
176	16
177	18
178	217
179	63
180	9
181	4
182	2
183	5
184	1
185	2
186	2
187	2
188	3
189	39
190	20
191	55
192	55
193	342
194	55
195	7
196	1
197	1
198	1
199	0
200	1
201	3
202	11
203	11
204	16
205	7
206	11
207	23
208	375
209	63
210	6
211	0
212	1
213	1
214	1
215	2
216	4
217	12
218	71
219	27
220	14
221	4
222	3
223	1
224	1
225	0
226	1
227	1
228	4
229	2
230	1
231	1
232	12
233	23
234	17
235	15
236	3
237	2
238	0
239	0
240	1
241	0
242	3
243	6
245	165
246	36
247	12
248	3
249	5
250	2
251	0
252	0
253	0
254	1
255	1
256	1
257	1
258	1
259	103
260	39
261	5
262	2
