Mass Spectrum: Brolamfetamine
Formula: C11H16BrNO2
CAS: 64638-07-9
Molecular weight: 273
m/z	intensity
40	2
41	5
42	24
44	999
45	24
50	10
51	18
52	4
53	20
54	2
55	1
56	1
57	2
59	1
61	1
62	7
63	21
64	12
65	17
66	5
67	6
68	1
69	1
74	6
75	12
76	13
77	67
78	19
79	14
80	3
81	2
82	1
86	1
87	2
88	1
89	18
90	16
91	34
92	19
93	11
94	4
95	1
102	2
103	4
104	7
105	36
106	11
107	10
108	12
109	1
115	2
116	2
117	6
118	6
119	8
120	13
121	23
122	10
129	3
130	3
131	5
132	4
133	6
134	6
135	6
136	7
137	2
143	17
144	2
145	18
146	4
147	7
148	6
149	13
150	6
151	3
155	3
156	4
157	5
158	4
159	3
160	1
161	5
162	8
163	9
164	8
165	1
168	1
169	6
170	2
171	13
172	3
173	7
174	2
175	1
176	1
178	4
179	4
183	2
184	6
185	3
186	15
187	4
188	10
189	2
192	1
197	1
199	25
200	4
201	28
202	4
203	2
212	1
213	1
214	3
215	28
216	6
217	27
218	3
226	1
227	2
228	3
229	21
230	169
231	34
232	170
233	15
234	1
240	1
241	1
242	3
243	1
244	2
257	1
258	2
259	1
260	2
272	1
273	5
274	1
275	5
