Mass Spectrum: 2-Cyclohexen-1-one, 2-hydroxy-4,4,6,6-tetramethyl-
Formula: C10H16O2
CAS: 64637-01-0
Molecular weight: 168
m/z	intensity
26	4
27	97
28	28
29	124
30	2
31	10
38	11
39	205
40	35
41	324
42	43
43	550
44	22
45	7
50	8
51	34
52	12
53	99
54	23
55	299
56	135
57	57
58	4
59	4
61	3
62	2
63	8
64	3
65	44
66	17
67	69
68	13
69	137
70	137
71	248
72	18
77	57
78	12
79	72
80	12
81	53
82	25
83	557
84	190
85	105
86	8
89	4
91	100
92	18
93	60
94	17
95	49
96	16
97	84
98	232
99	180
100	10
103	4
105	25
106	6
107	119
108	23
109	129
110	46
111	999
112	105
113	7
115	7
117	7
119	4
120	3
121	7
122	5
123	13
124	7
125	667
126	84
127	9
135	248
136	8
138	6
139	106
140	49
141	7
149	2
150	4
151	3
153	405
154	49
155	4
168	703
169	73
170	7
