Mass Spectrum: 4-Methylcyclohexanone, 4-tolylsulfonylhydrazone
Formula: C14H20N2O2S
CAS: 64692-80-4
Molecular weight: 280
m/z	intensity
26	11
27	135
29	153
30	115
31	7
33	4
38	16
39	284
40	32
41	378
42	62
43	69
44	52
45	37
48	17
50	27
51	62
52	27
53	158
54	235
55	543
56	55
57	99
58	8
61	4
62	18
63	60
64	32
65	265
66	34
67	255
68	115
69	64
70	21
71	10
73	2
74	3
75	4
77	83
78	25
79	109
80	56
81	986
82	78
83	27
84	10
86	2
89	44
90	23
91	506
92	198
93	126
94	19
95	319
96	98
97	173
98	33
105	3
106	21
107	37
108	229
109	34
110	12
111	4
113	3
115	7
121	5
122	3
123	14
124	59
125	999
126	83
127	3
128	11
129	8
135	9
139	139
140	83
141	13
142	3
155	16
156	31
157	193
158	20
159	11
160	6
216	4
280	18
