Mass Spectrum: Perfluorooctanonitrile
Formula: C8F15N
CAS: 647-12-1
Molecular weight: 395
m/z	intensity
31	99
69	999
76	200
93	29
100	179
119	400
126	49
131	231
169	250
181	90
219	89
231	59
269	69
319	50
395	39
