Mass Spectrum: 2-Ethyl-2-[(E)-(4-methoxyphenyl)diazenyl]malononitrile  #
Formula: C12H12N4O
CAS: 64710-73-2
Molecular weight: 228
m/z	intensity
38	38
39	60
41	41
44	89
50	29
55	30
57	29
63	179
64	148
76	39
77	461
78	89
79	30
92	429
106	30
107	999
108	190
135	610
136	59
199	19
228	9
229	9
