Mass Spectrum: 3-Pyridinecarboxamide, N-(5-nitro-2-thiazolyl)-
Formula: C9H6N4O3S
CAS: 64724-83-0
Molecular weight: 250
m/z	intensity
34	0
37	2
38	7
39	10
40	28
41	2
43	3
44	20
45	22
46	5
47	0
48	0
50	72
51	265
52	46
53	22
54	8
55	6
57	28
58	6
59	9
60	1
64	11
65	1
69	2
70	15
71	56
72	3
73	1
75	4
76	20
77	19
78	660
79	38
80	1
81	0
83	1
84	1
97	2
98	37
99	2
100	1
104	3
106	999
107	66
108	3
203	6
204	11
234	0
249	5
250	40
251	5
252	0
