Mass Spectrum: 1,3-Benzodioxole, 2-ethoxy-
Formula: C9H10O3
CAS: 64736-45-4
Molecular weight: 166
m/z	intensity
50	10
51	20
52	20
53	30
54	10
62	10
63	70
64	80
65	60
77	10
81	70
92	40
109	20
110	999
121	660
166	470
167	46
