Mass Spectrum: 2-Pyrrolidinone, 5-(ethoxymethyl)-
Formula: C7H13NO2
CAS: 64749-67-3
Molecular weight: 143
m/z	intensity
26	8
27	52
28	87
29	52
30	17
31	52
39	14
40	4
41	140
42	24
43	12
44	15
45	3
53	5
54	10
55	44
56	60
57	6
59	21
60	4
66	3
69	6
70	4
83	72
84	999
85	55
86	4
88	2
91	2
98	14
143	19
144	17
