Mass Spectrum: d-Ribonic acid, .gamma.-lactone, cyclic 2,3-(ethylboronate)
Formula: C7H11BO5
CAS: 64780-45-6
Molecular weight: 186
m/z	intensity
26	29
27	103
28	45
29	182
30	56
31	74
32	4
36	1
37	3
38	5
39	43
40	15
41	39
42	43
43	127
44	27
45	55
47	1
50	1
51	2
52	4
53	18
54	18
55	60
56	41
57	170
58	359
59	10
60	10
61	3
62	1
63	1
65	1
66	1
67	4
68	13
69	35
70	71
71	72
72	6
73	7
81	2
82	21
83	86
84	35
85	13
86	9
87	2
88	34
89	1
95	2
96	9
97	22
98	63
99	136
100	7
101	3
108	2
109	10
110	233
111	999
112	86
113	25
114	13
115	1
123	2
124	5
125	6
126	8
127	26
128	11
129	22
130	1
139	2
140	1
141	3
156	3
157	11
158	1
167	7
168	26
169	2
185	1
186	4
187	2
