Mass Spectrum: .alpha.-d-Mannofuranose, cyclic 2,3:5,6-bis(ethylboronate)
Formula: C10H18B2O6
CAS: 64780-36-5
Molecular weight: 256
m/z	intensity
26	10
27	16
28	53
29	42
30	2
31	23
32	1
36	0
38	0
39	11
40	6
41	26
42	26
43	124
44	21
45	26
46	0
47	3
50	1
51	1
52	3
53	11
54	17
55	44
56	97
57	139
58	7
59	13
60	87
61	4
62	0
63	0
65	2
66	2
67	6
68	18
69	67
70	73
71	54
72	14
73	45
74	3
75	3
76	1
77	2
78	2
79	3
80	2
81	23
82	18
83	67
84	31
85	69
86	14
87	26
88	1
89	0
90	0
91	0
92	0
93	0
94	1
95	5
96	16
97	62
98	349
99	847
100	74
101	29
102	4
103	4
104	0
105	1
106	0
107	1
108	3
109	15
110	248
111	999
112	111
113	45
114	7
115	14
116	3
117	1
119	0
120	0
121	0
122	2
123	22
124	95
125	122
126	40
127	120
128	165
129	142
130	10
131	1
132	0
133	0
134	0
135	1
136	5
137	12
138	26
139	97
140	72
141	96
142	12
143	4
144	0
145	0
148	0
149	1
150	4
151	13
152	6
153	23
154	28
155	10
156	44
157	162
158	23
159	3
160	0
162	1
163	2
164	1
165	5
166	7
167	12
168	13
169	47
170	5
171	4
172	0
177	0
178	1
179	4
180	13
181	26
182	9
183	6
184	1
185	1
191	0
192	0
193	1
194	4
195	12
196	21
197	39
198	4
199	3
200	6
201	0
206	1
207	4
208	7
209	16
210	10
211	2
212	5
213	8
214	1
219	0
220	1
221	2
222	1
223	10
224	83
225	160
226	20
227	10
228	0
236	0
237	2
238	6
239	7
240	0
250	0
251	0
