Mass Spectrum: .alpha.-D-Xylofuranose, cyclic 1,2:3,5-bis(ethylboronate)
Formula: C9H16B2O5
CAS: 64780-33-2
Molecular weight: 226
m/z	intensity
26	37
27	135
28	115
29	335
30	7
31	22
32	3
36	0
37	4
38	8
39	110
40	31
41	132
42	73
43	194
44	29
45	49
47	0
48	0
49	1
50	7
51	10
52	15
53	44
54	34
55	115
56	84
57	285
58	18
59	17
60	0
61	0
62	2
63	1
64	0
65	3
66	8
67	17
68	88
69	149
70	249
71	68
72	4
73	4
74	1
75	1
76	1
77	1
78	1
79	3
80	3
81	37
82	37
83	138
84	43
85	24
86	20
87	8
88	1
89	1
91	1
92	0
93	1
94	3
95	13
96	43
97	182
98	682
99	435
100	29
101	12
102	1
103	0
104	0
105	0
106	0
107	1
108	6
109	21
110	252
111	999
112	153
113	108
114	9
115	5
116	0
117	0
119	0
120	0
121	1
122	4
123	120
124	486
125	98
126	16
127	28
128	72
129	92
130	3
131	1
135	1
136	1
137	5
138	16
139	51
140	127
141	179
142	38
143	7
144	0
145	0
146	1
147	2
148	0
149	2
150	7
151	13
152	3
153	4
154	6
155	7
156	0
157	0
159	0
160	0
164	1
165	9
166	65
167	135
168	38
169	62
170	22
171	2
178	1
179	8
180	19
181	9
182	1
183	0
193	1
194	4
195	16
196	75
197	133
198	12
199	1
207	0
208	0
211	0
224	0
225	2
226	1
