Mass Spectrum: .beta.-L-Arabinopyranose, cyclic 1,2:3,4-bis(ethylboronate)
Formula: C9H16B2O5
CAS: 64780-31-0
Molecular weight: 226
m/z	intensity
26	33
27	97
28	70
29	204
30	4
31	19
32	1
36	1
37	3
38	5
39	67
40	17
41	66
42	49
43	78
44	16
45	40
47	0
48	0
49	1
50	6
51	8
52	9
53	40
54	25
55	71
56	45
57	143
58	6
59	3
60	2
61	0
62	0
63	0
64	0
65	1
66	4
67	8
68	14
69	129
70	314
71	28
72	4
73	2
74	0
75	0
76	0
77	3
78	1
79	2
80	1
81	10
82	21
83	69
84	10
85	8
86	4
87	3
88	0
91	0
93	1
94	2
95	8
96	29
97	270
98	999
99	126
100	20
101	6
105	8
106	0
107	1
108	2
109	10
110	91
111	354
112	38
113	33
114	2
115	1
117	0
120	0
121	0
122	1
123	81
124	341
125	56
126	6
127	14
128	31
129	33
130	1
135	0
136	1
137	1
138	4
139	8
140	13
141	21
142	2
143	0
150	1
151	3
152	0
153	1
154	1
155	1
164	0
165	3
166	9
167	13
168	3
169	2
170	0
178	0
179	1
180	2
181	0
194	0
195	1
196	5
197	6
225	3
226	5
227	0
