Mass Spectrum: Acetamidoacetaldehyde
Formula: C4H7NO2
CAS: 64790-08-5
Molecular weight: 101
m/z	intensity
42	140
43	999
44	130
45	40
58	30
59	40
72	430
73	520
