Mass Spectrum: Hexane, 3,3,4,4-tetrafluoro-
Formula: C6H10F4
CAS: 648-36-2
Molecular weight: 158
m/z	intensity
15	10
27	60
29	51
33	21
39	20
41	10
47	16
51	139
57	10
59	92
69	10
77	43
78	129
79	999
80	33
95	21
99	3
100	4
109	9
110	7
119	3
138	0
139	0
158	0
