Mass Spectrum: 4H-Cyclopropa[5',6']benz[1',2':7,8]azuleno[5,6-b]oxiren-4-one, 8,8a-bis(acetyloxy)-2a-[(acetyloxy)methyl]-1,1a,1b,1c,2a,3,3a,6a,6b,7,8,8a-dodecahydro-6b-hydroxy-3a-methoxy-1,1,5,7-tetramethyl-, [1aR-(1a.alpha.,1b.beta.,1c.alpha.,2a.alpha.,3a.beta.
Formula: C27H36O10
CAS: 64807-01-8
Molecular weight: 520
m/z	intensity
12	10
13	9
14	44
15	240
16	10
17	8
18	24
19	1
24	2
25	6
26	17
27	146
28	293
29	200
30	18
31	70
32	25
33	4
35	12
36	2
37	5
38	13
39	253
40	50
41	733
42	113
43	999
44	120
45	146
46	2
47	18
48	0
49	6
50	17
51	66
52	52
53	440
54	46
55	333
56	32
57	200
58	24
59	97
60	60
61	33
62	4
63	30
64	13
65	153
66	68
67	226
68	52
69	826
70	68
71	70
72	6
73	160
74	12
75	14
76	9
77	400
78	112
79	413
80	77
81	226
82	81
83	973
84	73
85	146
86	12
87	17
88	4
89	14
90	14
91	400
92	69
93	200
94	56
95	293
96	120
97	94
98	32
99	73
100	10
101	160
102	20
103	93
104	41
105	306
106	60
107	280
108	186
109	533
110	128
111	125
112	44
113	49
114	69
115	86
116	41
117	132
118	26
119	132
120	56
121	293
122	113
123	240
124	253
125	440
126	80
127	73
128	70
129	110
130	30
131	77
132	77
133	200
134	84
135	253
136	106
137	173
138	160
139	146
140	26
141	93
142	46
143	61
144	30
145	100
146	48
147	117
148	72
149	213
150	69
151	226
152	84
153	73
154	29
155	50
156	34
157	66
158	53
159	130
160	84
161	240
162	84
163	146
164	93
165	186
166	54
167	82
168	25
169	61
170	33
171	66
172	46
173	112
174	61
175	146
176	53
177	173
178	69
179	102
180	49
181	84
182	36
183	70
184	34
185	90
186	46
187	85
188	49
189	122
190	40
191	200
192	146
193	138
194	42
195	68
196	34
197	97
198	53
199	78
200	48
201	186
202	84
203	94
204	33
205	61
206	25
207	49
208	38
209	93
210	53
211	108
212	69
213	113
214	48
215	102
216	49
217	70
218	33
219	86
220	57
221	82
222	44
223	81
224	45
225	104
226	68
227	77
228	38
229	86
230	41
231	48
232	20
233	73
234	28
235	60
236	30
237	82
238	53
239	130
240	88
241	88
242	33
243	88
244	36
245	69
246	22
247	40
248	22
249	81
250	66
251	213
252	86
253	96
254	52
255	81
256	37
257	86
258	38
259	34
260	20
261	94
262	66
263	62
264	33
265	78
266	41
267	186
268	96
269	72
270	44
271	62
272	36
273	28
274	13
275	50
276	17
277	57
278	26
279	106
280	74
281	76
282	44
283	52
284	33
285	66
286	28
287	160
288	33
289	48
290	132
291	86
292	41
293	122
294	45
295	121
296	36
297	85
298	40
299	102
300	37
301	22
302	6
303	13
304	12
305	17
306	13
307	48
308	160
309	117
310	40
311	42
312	38
313	38
314	13
315	20
316	9
317	25
318	9
319	5
320	2
321	14
322	64
323	46
324	29
325	85
326	49
327	160
328	40
329	21
330	9
331	41
332	13
333	9
334	3
335	6
336	2
337	9
338	5
339	52
340	50
341	56
342	25
343	52
344	17
345	26
346	8
347	4
348	4
349	6
350	30
351	41
352	16
353	17
354	9
355	37
356	13
357	36
358	17
359	30
360	18
361	5
362	1
363	2
364	2
365	3
366	3
367	18
368	58
369	41
370	13
371	12
372	9
373	9
374	3
375	4
376	1
377	1
378	0
379	1
380	0
381	2
382	121
383	86
384	29
385	40
386	25
387	226
388	52
389	12
390	2
391	0
392	2
393	1
394	0
395	0
396	0
397	2
398	2
399	12
400	78
401	41
402	10
403	6
404	1
405	1
406	0
407	0
408	0
409	1
410	4
411	4
412	2
413	1
414	0
415	1
416	2
417	20
418	13
419	4
420	1
421	0
424	2
425	2
426	1
427	2
428	5
429	9
430	4
431	3
432	1
433	4
434	1
435	1
436	0
437	0
438	0
441	0
442	17
443	38
444	12
445	10
446	2
447	6
448	2
449	2
450	0
456	0
458	2
459	2
460	17
461	320
462	84
463	16
464	2
465	0
468	0
470	0
475	1
476	1
477	3
478	2
479	0
488	0
489	0
490	0
491	0
492	0
493	0
502	0
503	0
504	0
505	0
506	0
507	0
518	0
520	16
521	4
522	1
523	0
