Mass Spectrum: Benzenesulfinothioic acid, 4-methyl-, S-(4-methylphenyl) ester
Formula: C14H14OS2
CAS: 6481-73-8
Molecular weight: 262
m/z	intensity
96	14
97	45
98	2
108	62
109	14
110	2
111	2
121	107
122	82
123	999
124	136
125	65
126	17
139	105
140	19
141	14
152	2
153	11
154	22
155	39
156	17
165	11
166	2
167	22
168	2
181	11
182	79
183	8
184	8
185	11
197	17
198	22
199	11
200	11
212	8
213	36
214	25
215	14
246	653
247	107
248	73
249	22
