Mass Spectrum: Ethanone, 1-[3-methyl-3-(4-methyl-3-pentenyl)oxiranyl]-
Formula: C11H18O2
CAS: 64810-32-8
Molecular weight: 182
m/z	intensity
26	16
27	169
28	18
29	121
30	3
31	12
37	4
38	11
39	241
40	54
41	901
42	73
43	999
44	33
45	34
49	2
50	14
51	37
52	19
53	150
54	47
55	272
56	36
57	69
58	13
59	147
60	6
61	3
62	3
63	11
64	4
65	38
66	17
67	416
68	73
69	691
70	108
71	157
72	19
73	39
74	117
75	15
76	6
77	55
78	13
79	73
80	17
81	222
82	716
83	114
84	22
85	71
86	9
87	2
89	3
90	3
91	52
92	10
93	90
94	25
95	76
96	21
97	87
98	22
99	188
100	18
101	93
102	7
103	4
104	3
105	30
106	10
107	38
108	15
109	439
110	48
111	54
112	70
113	20
114	11
115	8
116	2
117	3
119	7
120	3
121	76
122	13
123	22
124	27
125	29
126	5
136	3
137	20
138	6
139	38
140	6
141	18
142	8
149	58
150	7
163	4
164	20
165	6
166	3
167	8
168	3
181	5
182	6
183	2
