Mass Spectrum: l-Valyl-l-tryptophanyl-l-alanine
Formula: C19H26N4O4
CAS: 64830-51-9
Molecular weight: 374
m/z	intensity
41	44
42	39
43	62
44	244
45	36
55	93
56	44
57	44
65	8
68	7
69	30
70	26
71	16
72	324
73	18
77	43
78	43
82	14
83	32
84	37
85	8
86	19
90	7
91	70
97	16
102	6
103	31
106	35
115	11
117	109
118	6
124	35
127	7
129	20
130	999
131	109
132	9
143	42
144	22
146	7
149	7
153	6
156	7
158	19
159	46
170	62
171	124
172	9
185	19
209	62
214	21
258	283
259	49
285	52
303	6
304	0
338	15
374	35
