Mass Spectrum: 2H-Pyrrol-2-one, 5-ethoxy-3,4-dihydro-3,4-dimethyl-, cis-
Formula: C8H13NO2
CAS: 64833-41-6
Molecular weight: 155
m/z	intensity
41	420
43	560
55	330
56	890
69	220
70	420
84	240
113	999
127	380
140	200
155	270
