Mass Spectrum: 2H-Pyrrol-2-one, 5-ethoxy-3,4-dihydro-3,4-dimethyl-, trans-
Formula: C8H13NO2
CAS: 64833-42-7
Molecular weight: 155
m/z	intensity
41	350
43	240
55	350
56	760
69	210
70	410
84	240
113	999
127	350
140	240
155	290
