Mass Spectrum: 1-Butyl-3-methyl-2,4,5-trioxoimidazolidine
Formula: C8H12N2O3
CAS: 64836-39-1
Molecular weight: 184
m/z	intensity
40	30
41	280
42	70
43	190
44	40
53	10
54	20
55	70
56	999
57	170
58	380
59	10
69	10
70	90
71	20
84	20
85	10
86	30
98	20
99	90
100	40
113	70
114	20
129	730
130	70
141	30
142	340
143	30
155	10
156	50
184	220
