Mass Spectrum: Cyclohexylmethane-1,1-diol diacetate
Formula: C11H18O4
CAS: 64847-82-1
Molecular weight: 214
m/z	intensity
39	49
41	119
42	30
43	999
44	40
53	19
54	19
55	190
56	19
57	20
67	49
69	40
70	19
71	59
79	30
81	19
82	29
83	149
84	19
85	20
89	10
93	10
94	39
95	160
96	20
97	9
103	80
111	100
112	60
126	149
127	10
131	20
154	9
155	40
