Mass Spectrum: Neopentane-1,1-diol diacetate
Formula: C9H16O4
CAS: 64847-79-6
Molecular weight: 188
m/z	intensity
39	19
41	90
42	30
43	999
44	30
57	319
69	30
71	49
85	60
86	19
87	148
99	10
100	49
103	89
129	100
131	59
