Mass Spectrum: n-Hexane-1,1-diol diacetate
Formula: C10H18O4
CAS: 64847-81-0
Molecular weight: 202
m/z	intensity
39	40
41	78
42	30
43	999
44	50
45	9
55	30
56	19
57	20
58	10
61	9
71	30
72	9
82	20
83	49
86	19
99	50
100	40
103	89
131	20
143	49
