Mass Spectrum: Methyl-2,4,6-tri-O-methyl-3-O-(methylester-2,3,4-tri-O-methyl.beta.d-glucopyranuronic acid).alpha.d-glucopyranoside
Formula: C20H36O12
CAS: 64850-66-4
Molecular weight: 468
m/z	intensity
71	169
75	297
88	170
99	16
101	999
111	12
113	33
114	16
117	8
127	71
145	338
157	54
159	412
169	10
173	11
186	29
187	44
201	285
219	190
232	53
233	129
256	13
279	932
405	6
437	36
