Mass Spectrum: 1,2-Bis(3,5-dimethylphenyl)-diazene 1-oxide
Formula: C16H18N2O
CAS: 64857-67-6
Molecular weight: 254
m/z	intensity
105	999
119	9
133	70
193	10
208	10
226	9
238	99
254	10
