Mass Spectrum: 3-Phenacyl-6-chioro-2(1H)-quinoxalinone
Formula: C16H11ClN2O2
CAS: 64852-65-9
Molecular weight: 298
m/z	intensity
77	551
105	999
165	80
167	30
168	39
170	20
193	129
195	50
221	141
223	50
253	19
255	19
257	10
269	181
270	59
271	70
272	29
281	19
283	10
297	70
298	390
299	99
300	139
