Mass Spectrum: Methylselenol
Formula: CH4Se
CAS: 6486-05-1
Molecular weight: 96
m/z	intensity
41	35
44	83
76	20
77	16
78	285
79	261
80	505
81	20
82	31
89	105
90	139
91	450
92	257
93	780
94	280
95	200
96	999
97	124
98	252
