Mass Spectrum: L-Alanine, N-(2,2,3,3,3-pentafluoropropoxy)-, 1-methylethyl ester
Formula: C9H12F5NO3
CAS: 64874-87-9
Molecular weight: 277
m/z	intensity
26	5
27	126
29	18
31	18
36	10
38	5
39	37
41	223
42	94
43	999
44	79
45	186
46	7
47	27
55	15
56	15
59	22
64	13
66	7
69	62
70	58
72	68
73	17
74	6
88	34
92	46
100	5
116	26
119	126
122	8
142	10
143	7
146	12
147	6
163	5
170	13
188	9
189	5
190	864
191	347
192	21
216	13
218	49
220	10
