Mass Spectrum: Benzeneethanol, 4-benzyloxy-3-methoxy-
Formula: C16H18O3
CAS: 64881-05-6
Molecular weight: 258
m/z	intensity
41	16
42	1
43	6
44	1
45	2
47	3
48	2
49	14
50	10
51	36
52	12
53	12
54	1
55	8
56	0
57	2
58	0
59	2
61	1
62	5
63	21
64	5
65	122
66	20
67	6
68	2
69	3
70	1
71	2
72	0
74	1
75	2
76	3
77	46
78	23
79	19
80	3
81	7
82	1
83	5
84	12
85	2
86	7
87	0
88	2
89	25
90	12
91	999
92	77
93	6
94	22
95	6
96	2
97	2
99	1
100	0
103	4
104	1
105	22
106	18
107	29
108	4
109	21
110	2
111	3
112	1
113	3
115	4
118	2
119	6
120	1
121	6
122	19
123	5
124	1
125	2
126	1
127	2
128	1
129	0
133	1
134	0
135	18
136	4
137	250
138	21
139	4
140	1
141	1
142	1
149	7
150	1
151	1
152	2
153	2
154	1
155	3
157	3
162	1
165	3
166	4
167	190
168	20
169	6
170	0
171	2
178	1
179	1
180	0
181	3
182	0
183	0
185	1
186	20
187	1
194	0
195	2
196	1
197	0
207	1
208	0
209	1
211	1
213	1
214	1
225	2
226	0
227	13
228	2
239	1
240	3
241	1
256	1
257	2
258	411
259	70
260	8
261	0
