Mass Spectrum: 1,3-Diphenyl-2,4,5-trioxoimidazolidine
Formula: C15H10N2O3
CAS: 6488-59-1
Molecular weight: 266
m/z	intensity
26	1
27	6
28	9
37	5
38	16
39	24
40	6
41	12
42	1
50	10
51	24
52	11
53	1
61	1
62	5
63	32
64	92
65	19
66	1
70	5
74	2
75	2
76	4
77	10
78	1
88	1
90	13
91	201
92	14
93	1
102	1
103	1
105	3
118	1
119	999
120	84
121	5
133	3
146	2
266	408
267	70
268	8
