Mass Spectrum: 2-Propenyl-1,3-dithiane
Formula: C7H12S2
CAS: 64899-10-1
Molecular weight: 160
m/z	intensity
39	221
41	300
45	480
46	229
47	98
53	148
54	29
58	79
59	91
65	30
71	91
72	120
73	199
74	260
81	69
84	40
85	999
86	510
95	210
99	19
100	30
103	420
105	120
106	51
111	39
113	81
114	40
118	40
119	79
127	70
145	100
160	782
