Mass Spectrum: 3,5,8-Trimethyl-1-phenyl-4,5,6,8-tetrahydropyrazolo[3,4-b][1,4]diazepin-7(1H)-one  #
Formula: C15H18N4O
CAS: 64899-16-7
Molecular weight: 270
m/z	intensity
41	999
42	913
43	497
51	782
52	271
53	272
54	273
55	409
56	230
57	231
64	250
65	231
66	209
67	179
68	140
69	272
71	181
76	139
77	859
80	139
81	148
84	139
90	140
91	341
92	140
95	90
103	158
104	209
105	91
118	299
119	140
131	181
132	139
133	332
145	139
149	69
158	70
159	70
160	69
172	49
184	60
186	60
187	59
201	110
213	139
214	140
227	70
228	80
255	270
270	410
