Mass Spectrum: Decanamide, n-pentyl-
Formula: C15H31NO
CAS: 64891-15-2
Molecular weight: 241
m/z	intensity
41	513
42	122
43	492
44	35
45	39
46	1
47	1
49	2
50	1
51	4
52	2
53	29
54	29
55	346
56	999
57	439
58	28
59	20
60	352
61	147
62	4
63	1
65	4
66	2
67	36
68	33
69	143
70	46
71	177
72	20
73	296
74	30
75	5
77	3
78	1
79	10
80	6
81	38
82	16
83	75
84	55
85	66
86	29
87	80
88	13
89	20
90	0
91	2
93	6
94	4
95	32
96	9
97	40
98	37
99	11
100	11
101	80
102	7
103	15
104	0
105	1
107	4
108	2
109	8
110	18
111	21
112	22
113	8
114	21
115	39
116	114
117	38
118	2
119	0
121	1
122	0
123	3
124	1
125	6
126	3
127	4
128	0
129	243
130	20
131	3
133	0
135	7
136	4
137	3
138	2
139	3
140	1
141	1
142	22
143	32
144	3
145	2
149	1
151	0
152	3
153	10
154	5
155	280
156	35
157	9
158	1
159	0
163	0
165	0
167	1
169	2
170	2
171	12
172	76
173	575
174	65
175	6
183	5
184	5
185	31
186	4
187	2
191	0
193	0
198	5
199	5
200	2
209	0
211	0
212	10
213	2
226	2
227	4
239	0
240	1
241	13
242	6
243	3
