Mass Spectrum: Galactopyranoside, methyl 4,6-diacetamido-4,6-dideoxy-2,3-di-O-methyl-
Formula: C13H24N2O6
CAS: 6490-75-1
Molecular weight: 304
m/z	intensity
41	83
42	111
43	576
44	153
45	251
47	20
53	20
54	7
55	46
56	124
57	44
58	44
59	33
60	31
61	20
67	20
68	54
69	62
70	31
71	132
72	72
73	249
74	72
75	218
76	7
77	7
80	5
81	20
82	7
83	31
84	90
85	44
86	101
87	23
88	999
89	59
95	23
96	44
97	54
98	122
99	44
100	26
101	298
102	59
103	7
105	23
108	10
109	23
110	23
111	64
112	96
113	124
114	33
115	187
116	31
117	10
122	7
123	7
124	18
125	7
126	31
127	62
128	129
129	44
130	5
131	23
137	10
138	44
139	26
140	57
141	23
142	23
143	7
151	7
152	7
153	93
154	59
155	57
156	44
157	7
158	31
168	13
169	192
170	20
171	7
176	7
180	34
181	30
182	26
183	18
184	4
185	16
186	16
187	7
194	1
200	23
201	6
202	8
203	37
212	29
213	68
214	22
232	4
241	17
243	7
245	39
246	16
273	26
274	25
