Mass Spectrum: N-(2-Bromo-3-methylbutyryl)-dl-valine
Formula: C10H18BrNO3
CAS: 6491-38-9
Molecular weight: 279
m/z	intensity
15	1
26	1
27	28
28	36
29	65
30	11
31	2
39	27
40	5
41	60
42	9
43	30
44	5
45	7
46	2
47	2
51	1
52	1
53	10
54	6
55	175
56	39
57	19
58	4
59	8
67	2
68	6
69	77
70	20
71	8
72	999
73	54
74	16
80	2
81	1
82	15
83	122
84	19
85	5
86	1
87	2
88	2
91	1
93	1
95	1
96	2
97	1
98	25
99	3
100	19
101	7
102	142
103	9
104	2
107	4
109	4
110	2
111	1
112	19
113	5
114	2
116	9
119	1
120	3
121	2
122	3
126	1
127	7
128	162
129	19
130	6
133	1
135	50
136	2
137	47
138	3
139	2
140	30
141	3
144	41
145	3
146	7
147	2
148	1
149	2
150	2
152	1
154	15
155	4
156	5
158	1
163	11
164	1
165	10
166	1
168	1
172	4
175	1
180	39
181	3
182	42
183	2
186	43
187	5
190	22
191	7
192	9
193	6
194	3
218	3
219	6
220	3
221	7
223	1
228	32
229	5
232	1
233	2
234	729
235	77
236	714
237	73
238	7
246	3
248	3
262	21
263	3
264	22
265	3
266	6
267	1
