Mass Spectrum: 4-(Methylamino)-3-nitrobenzonitrile
Formula: C8H7N3O2
CAS: 64910-45-8
Molecular weight: 177
m/z	intensity
30	65
37	78
38	124
39	105
40	57
41	40
42	41
43	11
44	19
45	3
46	45
49	23
50	194
51	209
52	206
53	41
54	20
55	10
57	4
61	50
62	159
63	166
64	172
65	112
66	55
67	14
69	4
73	23
74	62
75	228
76	289
77	406
78	77
79	26
80	12
86	11
87	27
88	91
89	128
90	112
91	38
92	32
93	4
99	34
100	27
101	42
102	524
103	383
104	999
105	181
106	14
115	38
116	189
117	111
118	55
119	55
120	9
129	289
130	351
131	365
132	101
133	17
143	66
144	92
145	15
146	9
147	14
148	11
159	8
160	67
161	10
162	27
176	12
177	635
178	69
179	5
