Mass Spectrum: 4-Cyano-2,2,5,5-tetramethyl-3-imidazoline-3-oxide-1-oxyl
Formula: C8H12N3O2
CAS: 64918-63-4
Molecular weight: 182
m/z	intensity
37	52
38	73
39	442
40	150
41	730
42	999
43	399
44	71
45	12
50	21
51	66
52	114
53	911
54	199
55	115
56	581
57	49
58	345
59	650
60	17
63	10
64	46
65	25
66	112
67	57
68	133
69	26
70	12
71	8
72	335
73	396
74	244
75	10
77	10
78	19
79	109
80	327
81	148
82	39
83	40
84	24
85	4
88	98
91	9
92	8
93	40
94	91
95	66
96	12
97	8
98	53
99	15
105	7
107	15
108	98
109	45
110	190
111	45
112	8
120	27
121	147
122	33
123	6
135	292
136	300
137	49
150	15
151	19
152	33
153	19
167	150
168	17
182	170
183	33
