Mass Spectrum: 1H-[1,2,4]Triazole-3-carboxylic acid, ethyl ester
Formula: C5H7N3O2
CAS: 64922-04-9
Molecular weight: 141
m/z	intensity
25	3
26	44
27	223
28	230
29	362
30	17
31	11
38	30
39	99
40	133
41	120
42	439
43	67
44	13
45	53
46	1
52	2
53	14
54	23
55	14
56	9
57	40
58	2
60	1
67	51
68	42
69	893
70	302
71	12
72	3
73	2
81	1
82	2
83	61
84	4
85	58
86	3
87	1
95	8
96	999
97	500
98	54
99	3
108	2
110	1
112	2
113	19
114	281
115	14
116	2
122	6
123	7
124	3
126	18
127	1
140	23
141	120
142	54
143	4
