Mass Spectrum: 3-Methyl-1-[(1H)-1,2,4-triazol-1-yl]butan-2-one
Formula: C7H11N3O
CAS: 64922-02-7
Molecular weight: 153
m/z	intensity
39	48
40	29
41	262
42	41
43	999
44	35
53	8
54	20
55	135
56	81
57	5
69	15
71	451
72	20
82	278
83	710
84	39
154	22
