Mass Spectrum: 2,2,5-Trimethyl-4,5-tetramethylene-3-imidazoline-3-oxide
Formula: C10H18N2O
CAS: 64934-87-8
Molecular weight: 182
m/z	intensity
26	11
27	38
28	64
29	24
30	10
32	14
38	6
39	49
40	14
43	12
44	5
51	5
52	12
53	49
54	26
55	88
56	16
57	42
58	999
59	54
63	5
65	16
66	15
67	115
68	21
69	9
70	12
71	12
73	13
75	10
77	22
79	26
80	20
81	19
82	32
83	16
84	11
85	9
91	16
92	5
93	36
94	14
95	489
96	54
97	11
98	20
100	7
106	6
107	8
108	31
109	47
110	49
111	8
121	5
122	5
123	11
124	16
125	68
126	8
134	5
135	6
136	6
137	57
138	8
150	7
151	46
152	14
164	5
165	5
166	5
167	13
181	7
182	203
183	26
184	5
