Mass Spectrum: 1-Anthracenecarboxaldehyde, 5,8,8a,9,10,10a-hexahydro-2,3-dihydroxy-10a-methyl-4-(1-methylethyl)-6-(4-methyl-3-pentenyl)-9,10-dioxo-, cis-
Formula: C25H30O5
CAS: 64960-69-6
Molecular weight: 410
m/z	intensity
69	999
77	200
79	180
91	280
93	230
105	250
135	190
259	190
274	170
275	150
297	190
313	910
314	230
382	550
383	150
410	280
