Mass Spectrum: Cyclopropanecarboxylic acid,isobutyl ester
Formula: C8H14O2
CAS: 64969-79-5
Molecular weight: 142
m/z	intensity
35	10
36	25
38	58
39	440
40	108
41	580
42	195
43	110
44	68
45	135
52	7
53	6
54	6
55	75
56	300
57	80
58	107
60	8
68	80
69	999
70	60
71	28
72	7
73	10
77	6
85	208
86	50
87	275
88	10
99	35
100	6
101	3
