Mass Spectrum: Propionitrile, 3-di(3-dimethylaminopropyl)amino-
Formula: C13H28N4
CAS: 64971-37-5
Molecular weight: 240
m/z	intensity
37	0
38	0
39	10
42	200
43	45
44	61
45	12
46	3
48	0
50	0
51	2
52	5
54	38
56	65
58	999
59	41
61	3
62	0
63	0
64	0
65	1
66	1
67	4
68	16
70	141
71	38
72	59
73	2
74	0
75	0
76	0
77	1
78	0
79	1
80	3
81	7
82	19
84	217
85	333
86	41
87	5
88	0
89	1
90	0
91	1
92	0
93	1
94	3
96	33
97	90
98	12
99	7
100	2
101	3
103	3
104	0
105	0
106	0
107	1
109	16
110	26
111	64
112	9
113	3
115	7
116	3
117	2
118	0
119	0
121	8
123	29
124	35
125	9
127	5
128	1
129	2
130	0
131	1
133	0
135	11
137	19
138	2
139	2
140	1
141	8
142	4
144	8
145	0
149	0
150	3
152	14
154	24
155	8
156	17
157	3
158	0
159	0
160	0
164	0
166	4
167	1
168	4
169	7
170	1
171	0
172	1
174	0
175	0
178	0
180	1
181	1
182	6
183	1
184	2
185	0
186	1
187	3
188	0
189	0
193	1
195	36
196	5
197	0
199	0
200	2
201	2
205	0
208	0
210	0
213	0
214	0
215	1
216	0
218	0
223	0
226	3
227	0
232	0
233	2
234	2
235	0
237	0
238	0
240	105
241	11
242	1
243	0
244	0
245	0
246	0
