Mass Spectrum: Bicyclo[6.1.0]nonane, 9,9-dichloro-
Formula: C9H14Cl2
CAS: 6498-44-8
Molecular weight: 192
m/z	intensity
34	0
35	9
36	42
37	10
38	53
39	582
40	105
41	886
42	99
43	73
44	2
45	1
47	5
49	39
50	50
51	199
52	58
53	224
54	665
55	825
56	50
57	30
58	1
60	3
61	23
62	23
63	64
65	308
66	119
67	835
68	385
69	108
70	20
71	0
73	66
74	10
75	97
77	250
78	45
79	330
80	79
81	999
82	107
83	98
85	46
87	145
88	58
89	69
90	23
91	135
92	31
93	128
94	33
95	125
96	517
97	38
98	8
99	54
100	23
101	84
102	37
103	32
104	14
105	24
106	2
107	24
109	283
111	119
112	8
113	44
114	24
115	100
116	33
117	37
118	9
119	8
120	20
121	140
122	667
124	468
125	30
126	67
127	21
128	6
129	20
130	8
131	5
132	2
135	15
136	19
137	11
138	11
139	1
140	0
141	4
143	3
149	8
150	6
151	6
152	3
156	7
157	27
158	3
159	7
163	10
164	8
165	6
166	3
192	84
194	55
195	4
196	7
