Mass Spectrum: 5-[p-Chlorobenzyloxy]-6-methoxy-8-nitroquinoline
Formula: C17H13ClN2O4
CAS: 64992-80-9
Molecular weight: 344
m/z	intensity
41	6
42	3
43	5
44	5
45	1
46	4
47	8
48	4
49	36
50	32
51	72
52	14
53	11
55	4
56	1
57	1
58	1
61	7
62	22
63	75
64	19
65	13
66	1
67	1
69	10
73	15
74	20
75	61
76	34
77	22
78	9
79	7
83	1
84	15
85	3
86	15
87	12
88	16
89	146
90	76
91	8
92	1
95	1
97	1
99	44
100	5
101	17
102	74
103	31
104	10
105	7
106	3
107	1
111	6
112	1
113	3
114	13
115	16
116	6
117	8
118	5
123	2
124	5
125	999
126	15
127	353
128	18
129	2
130	23
131	9
132	5
133	1
137	3
139	8
140	2
141	1
142	1
143	2
144	1
145	1
146	3
149	1
158	5
159	5
160	5
161	4
173	1
174	7
175	1
187	2
188	19
189	55
190	47
191	42
192	18
193	2
194	1
197	1
199	1
201	3
202	2
203	7
204	5
205	2
206	1
219	3
220	4
296	2
298	10
299	2
300	3
344	24
345	5
346	8
347	1
