Mass Spectrum: 1,4-Dioxaspiro[4.4]nonane-7-methanol
Formula: C8H14O3
CAS: 65005-20-1
Molecular weight: 158
m/z	intensity
25	4
26	29
27	134
28	16
29	81
30	13
31	83
34	1
37	4
38	7
39	111
40	0
41	141
42	113
43	105
44	6
45	31
46	1
49	0
50	2
51	10
52	7
53	40
54	22
55	282
56	71
57	43
58	12
59	5
60	3
62	1
63	3
65	18
66	19
67	61
68	20
69	23
70	4
71	10
72	10
73	12
74	1
77	10
78	4
79	45
80	19
81	23
82	18
83	135
84	21
85	29
86	179
87	17
88	4
89	3
91	4
95	16
96	17
97	50
98	10
99	999
100	146
101	13
108	0
109	5
110	6
111	3
112	12
113	61
114	8
115	4
119	1
125	10
126	16
127	749
128	97
129	45
130	5
131	0
139	3
140	9
141	2
157	1
158	10
