Mass Spectrum: Carbamic acid, N,N-diethyl-, phenyl ester
Formula: C11H15NO2
CAS: 65009-00-9
Molecular weight: 193
m/z	intensity
25	0
26	3
27	51
28	21
29	284
30	9
31	0
36	0
37	1
38	6
39	46
40	11
41	5
42	36
43	3
44	186
45	2
46	0
47	0
49	0
50	7
51	34
52	2
53	1
54	1
55	6
56	34
57	2
58	10
59	0
61	0
62	1
63	7
64	4
65	42
66	21
67	1
68	0
69	0
70	11
71	3
72	592
73	23
74	2
75	1
76	2
77	60
78	5
79	2
82	0
84	3
85	0
89	6
90	0
91	1
93	5
94	84
95	6
96	0
98	1
99	1
100	999
101	61
102	3
103	0
104	1
105	5
106	2
107	13
108	1
116	0
117	0
118	0
119	0
121	2
132	0
134	0
136	0
148	0
149	1
150	0
164	0
178	3
179	0
192	1
193	211
194	25
195	2
