Mass Spectrum: 3-Bromo-4-methyl-2,3-dihydro-thiophene 1,1-dioxide
Formula: C5H7BrO2S
CAS: 65017-48-3
Molecular weight: 210
m/z	intensity
33	5
34	2
35	3
36	7
37	32
38	93
39	566
40	133
41	999
42	38
43	97
44	19
45	114
46	9
47	30
48	42
49	16
50	75
51	113
52	68
53	115
54	29
55	78
56	6
57	9
58	16
59	44
60	5
61	17
62	25
63	65
64	59
65	364
66	97
67	457
68	39
69	29
70	5
71	17
72	4
73	9
74	2
75	13
76	1
77	2
78	2
79	19
80	25
81	46
82	73
83	63
84	12
85	107
86	7
87	23
88	3
89	40
90	2
91	4
92	1
93	5
95	6
96	0
97	40
98	14
99	9
100	3
101	36
103	425
104	24
105	23
106	26
107	5
108	24
109	2
111	1
112	2
113	30
114	4
115	2
116	0
117	7
118	2
119	4
120	1
121	3
122	0
123	2
125	0
127	4
128	3
131	718
132	47
133	39
134	3
135	3
136	0
137	0
139	0
143	0
144	4
146	154
147	14
148	145
149	9
160	0
161	0
162	0
163	0
164	0
168	0
181	1
183	1
194	2
195	0
207	0
209	0
210	55
211	5
212	56
213	4
214	3
