Mass Spectrum: Iron, tricarbonyl[N,N'-(1,2-dimethyl-1,2-ethanediylidene)bis[4-methoxybenzenamine]-N,N']-
Formula: C21H20FeN2O5
CAS: 65016-01-5
Molecular weight: 436
m/z	intensity
27	14
28	999
29	14
30	2
31	1
37	1
38	6
39	17
40	2
41	7
42	4
43	1
44	4
45	0
49	0
50	11
51	15
52	9
53	12
54	7
55	2
56	110
57	9
58	0
61	1
62	2
63	25
64	63
65	14
66	2
67	1
68	0
69	1
70	2
71	15
72	0
73	0
74	1
75	5
76	14
77	200
78	25
79	19
80	9
81	7
82	4
83	1
84	1
85	0
86	0
87	1
88	0
89	4
90	6
91	6
92	120
93	10
94	10
95	4
96	1
97	9
98	1
100	0
101	0
102	2
103	3
104	4
105	10
106	3
107	72
108	25
109	3
110	0
111	0
112	1
113	0
114	0
115	2
116	1
117	5
118	5
119	3
120	20
121	13
122	8
123	13
124	1
125	0
126	0
127	1
128	3
129	0
130	2
131	4
132	14
133	31
134	19
135	4
136	1
137	0
138	0
139	1
140	1
141	2
142	1
143	1
144	1
145	4
146	5
147	5
148	656
149	79
150	15
151	2
152	1
153	1
154	1
155	1
156	2
157	1
158	2
159	2
160	4
161	5
162	7
163	52
164	7
165	1
166	0
167	0
168	1
169	2
170	1
171	8
172	2
173	3
174	6
175	8
176	71
177	5
178	11
179	4
180	0
181	1
182	0
183	1
184	4
185	1
186	1
187	3
188	5
189	32
190	15
191	1
192	0
193	1
194	0
195	1
196	1
197	1
198	1
199	22
200	3
201	1
202	3
203	2
204	36
205	5
206	1
207	0
208	0
209	1
210	2
211	1
212	1
213	1
214	29
215	5
216	1
217	2
218	1
219	17
220	3
221	1
222	0
223	1
224	1
225	2
226	1
227	1
228	2
229	7
230	2
231	0
233	0
234	0
235	0
236	0
237	0
238	1
239	1
240	19
241	3
242	0
243	0
244	0
245	0
247	0
248	0
249	0
250	0
251	1
252	1
253	3
254	1
255	7
256	1
257	0
259	0
260	0
261	0
262	0
263	0
264	1
265	6
266	4
267	2
268	3
269	1
270	3
271	0
272	0
275	4
276	2
277	1
278	1
279	2
280	2
281	60
282	13
283	3
284	1
285	0
286	0
287	0
290	0
291	0
292	0
293	0
294	5
295	26
296	103
297	21
298	5
299	1
300	0
301	0
304	0
305	0
306	0
307	2
308	1
309	8
310	6
311	114
312	22
313	3
314	0
319	0
320	0
321	0
322	1
323	1
324	1
325	5
326	3
328	0
333	0
334	0
335	1
336	0
337	7
338	2
339	0
347	0
348	0
349	1
350	30
351	12
352	452
353	102
354	15
355	1
356	0
366	0
378	12
379	3
380	174
381	41
382	6
383	0
384	0
406	1
407	0
408	24
409	6
410	1
434	0
436	9
437	3
438	0
