Mass Spectrum: 2-((2R,4aR,8aR)-4a,8-Dimethyl-1,2,3,4,4a,5,6,8a-octahydronaphthalen-2-yl)prop-2-en-1-ol
Formula: C15H24O
CAS: 65018-15-7
Molecular weight: 220
m/z	intensity
26	1
27	26
29	56
30	2
31	29
37	1
38	2
39	122
40	24
41	322
42	22
43	91
44	7
45	5
50	6
51	47
52	27
53	223
54	26
55	400
56	30
57	90
58	8
59	3
63	19
64	12
65	174
66	57
67	414
68	62
69	151
70	15
71	25
72	4
73	3
77	461
78	98
79	758
80	102
81	574
82	63
83	66
84	32
85	7
90	3
91	910
92	148
93	633
94	138
96	66
97	64
98	18
99	3
102	12
103	81
104	47
105	999
106	223
107	657
108	140
109	459
110	72
111	22
112	3
113	2
114	1
115	113
116	50
117	262
118	83
119	590
120	232
121	310
122	267
123	376
124	101
127	20
128	66
129	83
130	46
131	520
132	158
133	342
134	108
135	143
136	66
137	47
139	5
141	24
142	16
143	41
144	24
145	455
146	130
147	502
148	82
149	119
150	35
153	4
155	5
156	3
157	16
158	13
159	198
160	63
161	193
162	141
164	34
165	15
169	1
170	1
171	8
172	8
173	164
174	65
175	16
177	20
185	10
186	3
187	682
188	106
191	102
192	26
200	2
201	5
202	384
203	70
204	7
205	247
206	37
218	5
219	1
220	362
221	61
