Mass Spectrum: 1,5-Diphenyl-pent-1,4-dien-3-one oxime
Formula: C17H15NO
CAS: 6502-37-0
Molecular weight: 249
m/z	intensity
39	293
41	159
51	416
52	199
63	170
65	159
77	999
78	607
89	169
91	440
102	250
103	416
104	419
105	281
106	91
107	117
115	495
116	201
117	160
122	169
127	40
128	208
129	168
130	159
143	198
144	201
145	89
146	78
147	30
161	158
165	88
166	9
178	39
189	39
191	40
202	79
203	39
204	39
215	80
216	40
217	90
218	39
219	39
230	199
231	59
232	397
233	88
248	807
249	556
250	120
