Mass Spectrum: 4,5-Dihydro-N-(O-tolyl)-3-furamide
Formula: C12H13NO2
CAS: 65038-88-2
Molecular weight: 203
m/z	intensity
27	5
28	6
29	5
30	2
38	2
39	42
40	6
41	101
42	4
43	2
50	3
51	10
52	7
53	6
54	1
55	1
62	1
63	5
64	2
65	15
66	2
67	2
68	3
69	100
70	5
75	1
76	1
77	24
78	10
79	9
80	2
89	4
90	2
91	19
92	2
93	1
95	10
96	1
97	999
98	58
99	5
100	1
101	1
103	1
104	5
105	1
106	23
107	25
108	3
115	1
116	1
117	2
118	4
120	3
128	1
129	1
130	2
131	1
132	3
133	2
134	3
144	2
146	2
147	1
158	1
159	5
160	11
161	1
172	2
173	2
174	4
175	12
176	1
184	1
185	8
186	2
188	1
202	6
203	294
204	41
205	4
