Mass Spectrum: 4,5-Dihydroxyoxazole-5-one, 4-hydroxymethylene-2-phenyl-
Formula: C10H7NO3
CAS: 65037-88-9
Molecular weight: 189
m/z	intensity
42	27
43	6
44	9
45	33
49	18
50	162
51	331
52	22
53	17
54	22
56	182
57	31
59	7
61	8
62	18
63	30
73	6
74	48
75	41
76	67
77	556
78	53
86	6
89	35
90	32
103	19
104	65
105	999
106	83
116	8
117	6
149	7
161	8
189	308
190	42
