Mass Spectrum: Benzene, (1-methyl-2-cyclopropen-1-yl)-
Formula: C10H10
CAS: 65051-83-4
Molecular weight: 130
m/z	intensity
25	0
26	10
27	45
28	3
29	0
30	0
33	0
37	6
38	18
39	83
40	4
41	5
43	1
44	0
45	0
49	4
50	80
51	166
52	36
53	12
54	1
55	1
56	1
57	19
59	0
60	0
61	10
62	35
63	98
64	61
65	52
66	3
69	0
70	0
71	0
73	3
74	35
75	29
76	20
77	72
78	36
79	11
80	0
81	0
82	0
84	0
85	3
86	13
87	18
88	15
89	91
90	7
91	27
92	1
93	0
97	1
98	4
99	3
100	1
101	8
102	30
103	24
104	11
105	10
106	1
107	0
109	1
110	1
111	0
112	0
113	18
114	14
115	999
116	88
117	53
118	8
119	1
120	0
121	0
122	0
124	0
125	0
126	13
127	61
128	132
129	229
130	290
131	37
132	11
133	1
