Mass Spectrum: Cyclohexanecarboxaldehyde, 3,3-dimethyl-5-oxo-
Formula: C9H14O2
CAS: 65080-66-2
Molecular weight: 154
m/z	intensity
26	20
27	246
28	80
29	273
30	8
31	19
37	10
38	27
39	416
40	92
41	916
42	241
43	232
44	15
45	10
50	21
51	49
52	23
53	142
54	55
55	999
56	383
57	512
58	38
59	8
60	4
61	4
62	6
63	15
64	7
65	36
66	22
67	161
68	129
69	500
70	368
71	78
72	5
73	5
74	4
75	14
77	68
78	14
79	75
80	15
81	100
82	196
83	826
84	106
85	140
86	12
91	67
92	9
93	152
94	47
95	149
96	25
97	220
98	162
99	27
103	5
105	8
107	29
108	52
109	230
110	34
111	210
112	76
113	10
115	4
121	200
122	19
123	7
124	4
125	180
126	824
127	89
128	7
129	3
135	5
136	4
137	5
138	4
139	137
140	15
141	5
152	7
153	3
154	23
155	20
156	4
