Mass Spectrum: 2-Oxatricyclo[3.3.1.1(3,7)]decane, 1-methyl-
Formula: C10H16O
CAS: 6508-22-1
Molecular weight: 152
m/z	intensity
26	3
27	64
28	6
29	54
30	2
31	4
38	5
39	104
40	21
41	151
42	18
43	296
44	10
45	7
50	5
51	19
52	11
53	51
54	14
55	74
56	11
57	12
58	19
59	21
60	2
62	3
63	7
64	2
65	28
66	37
67	137
68	31
69	87
70	13
71	14
72	2
75	2
77	75
78	20
79	199
80	47
81	59
82	28
83	25
84	218
85	17
86	1
90	2
91	60
92	26
93	130
94	662
95	999
96	88
97	35
98	6
103	3
104	2
105	17
106	10
107	44
108	37
109	112
110	24
111	41
112	3
115	1
117	2
118	2
119	15
120	2
121	3
123	10
124	3
133	3
134	13
135	4
136	1
137	67
138	7
139	1
149	2
151	10
152	478
153	59
154	4
