Mass Spectrum: 2-(Prop-2-ynyl)-4,5-diphenyl-1,2,4-triazol-3-one
Formula: C17H13N3O
CAS: 65091-81-8
Molecular weight: 275
m/z	intensity
43	379
51	342
58	331
63	59
64	69
76	70
77	999
78	79
89	20
91	60
104	49
112	50
113	59
114	90
115	30
117	121
118	19
119	30
127	60
128	70
129	50
130	29
171	40
172	40
178	69
179	29
180	430
181	140
219	29
274	40
275	100
276	19
