Mass Spectrum: 1,4-Oxazepine-5,7(2H,6H)-dione, dihydro-3,4-dimethyl-2-phenyl-6-(phenylmethylene)-, [2R-(2.alpha.,3.alpha.,6Z)]-
Formula: C20H19NO3
CAS: 65092-79-7
Molecular weight: 321
m/z	intensity
25	0
26	3
27	18
29	15
30	17
31	1
37	0
38	2
39	25
40	27
41	10
42	190
43	9
44	12
45	0
49	0
50	21
51	52
52	23
53	10
54	5
55	8
56	181
57	74
58	999
59	35
60	0
61	1
62	4
63	24
64	5
65	20
66	3
67	1
68	2
69	2
70	3
71	2
72	1
73	1
74	11
75	22
76	60
77	81
78	15
79	16
80	1
81	3
82	16
83	2
84	1
85	0
86	2
87	2
88	2
89	18
90	9
91	52
92	4
93	1
94	1
95	0
96	3
97	0
98	1
99	0
100	1
101	14
102	359
103	76
104	14
105	37
106	4
107	4
108	1
109	0
110	5
111	1
113	0
114	1
115	28
116	16
117	86
118	235
119	22
120	3
126	1
127	2
128	4
129	34
130	580
131	189
132	24
133	3
134	0
139	0
141	1
142	1
143	4
144	105
145	13
146	21
147	5
148	0
152	0
156	1
157	3
158	200
159	50
160	6
161	1
162	3
163	1
164	0
165	2
170	0
171	1
172	4
173	0
175	0
176	0
177	0
178	1
179	1
180	1
184	1
185	0
186	17
187	24
188	21
189	4
190	2
191	7
192	11
193	2
198	1
199	1
200	141
201	19
202	3
203	1
204	1
207	0
208	0
214	55
215	530
216	80
217	8
218	2
219	1
220	69
221	11
222	1
236	0
246	16
247	6
248	1
262	1
263	0
264	34
265	7
266	0
270	0
276	1
277	4
278	1
279	0
294	2
295	0
320	1
321	25
322	8
323	1
