Mass Spectrum: Glycine, N-[N-[N-(trifluoroacetyl)glycyl]glycyl]-, methyl ester
Formula: C9H12F3N3O5
CAS: 651-18-3
Molecular weight: 299
m/z	intensity
12	2
14	5
15	50
18	15
20	17
26	5
27	17
28	128
29	55
30	999
31	37
32	22
33	15
37	10
41	17
42	68
43	55
44	22
45	7
50	10
51	12
54	7
55	10
56	161
57	15
58	45
59	37
60	5
62	7
64	5
69	128
70	10
71	125
72	17
73	5
74	15
77	55
78	15
81	2
85	90
86	7
87	15
88	83
89	17
90	90
91	7
96	2
97	25
98	15
99	12
100	5
101	5
102	2
103	2
104	2
106	17
107	5
108	5
109	5
110	5
111	5
112	2
113	234
114	37
115	17
116	12
125	15
126	226
127	188
128	15
129	10
130	7
131	12
137	10
141	105
142	12
146	5
153	10
154	25
155	10
156	10
157	15
165	7
166	12
167	10
168	2
169	5
173	158
174	20
175	5
181	7
182	7
183	60
184	692
185	70
186	15
187	12
191	5
192	5
211	138
212	17
213	5
214	25
215	5
230	20
240	55
241	5
277	22
278	17
279	2
284	7
299	20
