Mass Spectrum: 3,6,9,12,15-Pentaoxabicyclo[15.3.1]heneicosa-1(21),17,19-trien-21-ol
Formula: C16H24O6
CAS: 65112-36-9
Molecular weight: 312
m/z	intensity
25	0
26	2
27	19
28	0
29	17
30	2
31	20
33	0
38	0
39	11
41	8
42	2
43	31
44	16
45	999
46	26
47	2
50	1
51	10
52	6
53	4
54	0
55	1
57	1
58	7
59	26
60	2
61	2
62	0
63	4
64	1
65	49
66	4
67	0
68	0
70	0
71	2
72	5
73	31
74	1
75	5
76	1
77	35
78	10
79	16
80	4
81	3
86	3
87	61
88	9
89	639
90	30
91	195
92	56
93	4
94	0
99	0
100	0
101	1
102	1
103	7
104	7
105	10
106	8
107	26
108	6
109	0
113	0
115	1
116	1
117	3
118	3
119	143
120	109
121	29
122	4
123	0
126	0
129	0
131	12
132	31
133	127
134	29
135	49
136	28
137	4
138	0
143	0
144	7
145	8
146	7
147	4
148	5
149	11
150	3
151	3
152	0
158	0
159	0
160	1
161	19
162	23
163	10
164	1
165	1
175	9
176	1
177	102
178	9
179	2
180	5
181	1
182	0
188	0
189	0
191	0
192	11
193	4
194	2
195	0
205	0
206	3
207	0
220	0
224	19
225	8
226	4
227	0
232	0
238	0
250	0
254	0
268	0
269	4
270	0
279	0
294	1
295	0
312	213
313	35
314	5
315	0
