Mass Spectrum: 2-Adamantanol, TMS derivative
Formula: C13H24OSi
CAS: 65115-51-7
Molecular weight: 224
m/z	intensity
27	14
29	9
39	27
40	9
41	72
42	11
43	24
44	30
45	69
46	9
47	28
51	13
53	28
54	9
55	38
56	17
57	19
58	16
59	34
60	10
61	40
63	9
65	19
66	17
67	69
68	13
69	15
70	8
71	8
72	15
73	200
74	39
75	999
76	131
77	102
78	43
79	151
80	53
81	40
82	15
83	8
84	7
85	11
87	8
88	7
89	12
91	115
92	90
93	74
94	19
95	9
97	12
99	8
100	8
101	7
103	13
104	12
105	34
106	15
107	18
108	7
109	8
113	7
115	11
116	10
117	7
119	23
120	12
121	7
125	10
127	9
129	10
131	12
133	27
134	190
135	133
136	35
137	9
142	9
143	11
146	9
147	9
148	13
149	7
150	10
165	11
167	7
179	7
181	18
191	11
193	13
194	8
209	762
210	150
211	30
212	6
223	7
224	26
225	5
226	1
