Mass Spectrum: 9-Octadecenoic acid, ethyl ester
Formula: C20H38O2
CAS: 6512-99-8
Molecular weight: 310
m/z	intensity
29	4
30	4
31	9
32	4
33	5
37	2
38	2
39	47
40	27
41	693
42	122
43	727
44	36
45	67
46	5
47	2
49	7
50	1
51	1
52	2
53	38
54	184
55	999
56	214
57	354
58	17
59	22
60	72
61	81
62	9
64	2
65	14
66	14
67	250
68	174
69	743
70	298
71	100
73	184
74	30
75	2
77	3
78	1
79	16
80	31
81	186
82	138
83	517
84	568
85	99
86	1
87	36
88	655
89	72
91	16
92	7
93	26
94	15
95	128
96	290
97	340
98	256
99	44
100	4
101	315
102	36
105	6
106	5
107	10
108	16
109	86
110	156
111	130
112	56
113	16
114	6
115	53
116	9
117	12
118	6
119	26
120	1
121	28
122	4
123	97
124	57
125	53
126	18
127	29
128	27
129	33
130	11
131	1
132	12
133	12
135	27
136	4
137	57
138	40
139	38
140	12
141	20
142	33
143	26
147	4
148	24
149	13
151	41
152	37
153	35
154	14
155	52
156	21
157	23
158	9
159	2
161	12
162	7
163	5
165	24
166	23
167	9
169	19
171	10
176	9
180	80
181	22
183	7
185	6
189	5
193	2
195	2
197	24
199	6
200	6
202	1
205	5
207	5
209	10
211	21
213	11
221	51
222	84
223	17
224	5
235	17
239	10
246	12
247	15
253	12
264	164
265	129
267	2
283	7
284	2
298	10
310	40
