Mass Spectrum: Benzenesulfonamide, 4-methyl-N-(tetrahydro-2-oxo-3-furanyl)-
Formula: C11H13NO4S
CAS: 6513-20-8
Molecular weight: 255
m/z	intensity
26	4
27	28
28	88
29	25
30	14
38	6
39	72
40	9
41	55
42	14
43	34
44	7
45	11
50	15
51	33
52	10
53	8
54	10
55	31
56	187
57	51
60	5
62	11
63	49
64	16
65	231
66	14
67	9
68	4
69	27
70	13
71	32
72	25
73	8
75	5
76	4
77	19
78	7
79	10
80	4
81	9
82	5
83	16
84	10
85	23
87	4
89	53
90	33
91	999
92	125
93	10
95	7
96	4
97	12
98	4
99	6
100	13
101	5
105	13
106	43
107	20
108	12
109	5
111	9
112	4
115	9
118	11
119	29
120	57
121	7
123	4
125	4
130	8
131	4
132	35
133	78
134	9
139	43
140	15
141	10
146	22
147	101
148	12
149	32
150	3
155	381
156	37
157	25
172	2
184	2
190	2
197	29
198	3
205	1
210	6
211	149
212	19
213	9
226	1
255	102
256	15
257	6
