Mass Spectrum: Cyclohexanecarboxylic acid, 3-phenylprop-2-enyl ester
Formula: C16H20O2
CAS: 65134-82-9
Molecular weight: 244
m/z	intensity
27	39
28	3
29	38
38	89
40	11
41	155
42	17
43	49
44	57
50	12
51	47
52	9
53	24
54	29
55	305
56	35
57	23
62	2
63	19
65	31
67	38
68	18
69	25
71	25
73	25
77	55
78	31
79	22
80	7
81	31
82	17
83	999
84	89
89	21
91	103
92	39
95	12
97	12
98	35
99	9
102	13
103	25
104	18
105	27
110	15
111	418
112	39
113	18
114	12
115	229
116	135
117	439
118	62
119	9
126	4
127	6
128	9
129	6
131	9
133	26
134	31
244	73
245	12
