Mass Spectrum: Spiro[3.5]nonan-1-one, 5-methyl-, trans-
Formula: C10H16O
CAS: 65147-56-0
Molecular weight: 152
m/z	intensity
39	230
40	60
41	370
42	60
53	160
54	200
55	280
56	60
66	80
67	620
68	420
69	120
77	60
79	100
81	999
82	290
95	570
96	460
97	110
108	110
109	320
110	310
124	290
134	100
152	260
153	30
