Mass Spectrum: Spiro[3.4]octan-1-one, 5-methyl-, cis-
Formula: C9H14O
CAS: 65147-55-9
Molecular weight: 138
m/z	intensity
39	440
40	90
41	360
44	500
51	90
53	180
54	180
55	160
65	80
67	680
68	180
77	100
79	200
81	999
82	360
91	70
94	170
95	380
96	180
109	200
110	160
120	300
138	380
