Mass Spectrum: Cyclohexane, 1,1'-[1,2-bis(1,1-dimethylethyl)-1,2-ethanediyl]bis-, (R*,R*)-(.+/-.)-
Formula: C22H42
CAS: 65149-85-1
Molecular weight: 306
m/z	intensity
41	430
43	70
55	400
57	999
67	110
69	110
71	110
81	80
83	290
97	470
111	50
125	30
139	40
153	170
193	70
249	30
