Mass Spectrum: Prosta-5,13-dien-1-oic acid, 9,11-epidioxy-15-[[(4-methylphenyl)sulfonyl]oxy]-, methyl ester, (5Z,9.alpha.,11.alpha.,13E,15S)-
Formula: C24H42O5Si
CAS: 65147-48-0
Molecular weight: 438
m/z	intensity
15	2
18	5
26	15
27	31
28	74
29	59
30	4
31	7
32	13
37	3
39	33
40	2
41	141
42	16
43	157
44	21
45	96
46	7
47	28
49	6
50	18
51	30
52	58
53	30
54	10
55	130
56	21
57	75
58	10
59	70
60	8
61	18
63	6
65	20
66	19
67	137
68	17
69	44
70	12
71	69
72	18
73	999
74	132
75	269
76	19
77	80
78	45
79	235
80	64
81	94
82	14
83	32
84	8
85	44
87	10
88	15
89	26
90	5
91	175
92	38
93	90
94	21
95	36
96	10
97	25
98	7
99	63
100	7
101	13
102	4
103	123
104	40
105	116
106	127
107	52
108	8
109	33
110	8
111	20
112	3
113	10
115	27
116	15
117	68
118	16
119	59
120	33
121	27
122	6
123	13
124	4
125	9
126	4
127	13
128	7
129	88
130	100
131	174
132	31
133	33
134	8
135	28
136	7
137	10
138	3
139	8
140	5
141	16
142	10
143	61
144	15
145	85
146	32
147	62
148	34
149	23
150	5
151	11
152	4
153	10
154	11
155	52
156	11
157	15
158	3
159	33
160	7
161	38
162	9
163	17
164	3
165	5
166	2
167	36
168	13
169	21
170	8
171	22
172	4
173	101
174	15
175	16
177	3
179	17
180	97
181	25
182	9
183	10
185	5
186	8
187	13
188	8
189	7
191	11
192	7
193	16
194	6
195	6
196	3
197	7
199	21
200	4
201	6
202	4
203	7
204	2
205	35
206	6
207	6
209	3
211	5
212	9
213	3
215	4
217	3
219	7
220	5
221	12
222	4
223	9
225	573
226	120
227	35
228	5
229	11
233	4
235	6
236	3
237	8
238	5
239	6
241	3
245	7
251	26
252	7
253	7
263	9
265	5
267	11
276	20
277	9
293	6
295	308
296	78
297	21
298	9
299	3
309	3
323	3
335	24
336	6
351	11
352	4
366	76
367	22
368	5
