Mass Spectrum: meso-3,4-Dicyclohexyl-2,2,5,5-tetramethylhexane
Formula: C22H42
CAS: 65149-86-2
Molecular weight: 306
m/z	intensity
41	200
43	80
55	290
57	990
67	90
69	130
70	180
71	270
81	70
83	420
95	80
97	999
98	80
109	80
111	110
123	30
125	60
139	70
153	330
165	70
167	70
179	30
193	180
249	40
306	10
