Mass Spectrum: Thymidine, 2'-deoxy-N,O,O-trimethyl-
Formula: C13H20N2O5
CAS: 65150-68-7
Molecular weight: 284
m/z	intensity
25	0
26	17
27	107
28	106
29	104
30	10
31	49
33	61
34	0
35	1
36	3
37	2
38	11
39	107
40	74
41	152
42	56
43	69
44	9
45	999
46	22
47	6
49	1
50	4
51	9
52	19
53	82
54	118
55	212
56	49
57	25
58	59
59	745
60	26
61	9
62	2
63	0
64	1
65	6
66	14
67	30
68	54
69	51
70	14
71	297
72	29
73	47
74	5
75	13
76	1
77	16
78	2
79	3
80	50
81	168
82	75
83	70
84	27
85	94
86	6
87	621
88	35
89	9
90	0
91	0
92	6
93	6
94	13
95	12
96	20
97	13
98	8
99	62
100	8
101	118
102	8
103	19
104	1
105	0
106	1
107	1
108	11
109	16
110	48
111	74
112	233
113	637
114	43
115	6
116	0
117	2
118	0
119	0
120	0
121	1
122	20
123	7
124	5
125	2
126	2
127	3
128	0
129	2
130	0
131	1
133	0
134	1
135	0
136	5
137	1
138	19
139	7
140	135
141	171
142	13
143	5
144	51
145	824
146	65
147	7
148	0
149	0
150	20
151	2
152	10
153	4
154	4
155	1
156	1
157	2
162	2
163	0
164	3
165	5
166	4
167	3
168	0
169	12
170	0
179	4
180	0
181	4
182	2
183	1
184	1
189	2
192	0
193	0
194	0
195	1
196	0
197	0
205	0
207	8
208	1
209	3
210	7
211	1
219	0
220	9
221	2
222	0
223	0
224	0
226	0
239	5
240	0
251	0
252	2
253	1
254	0
269	0
281	0
282	0
283	0
284	102
285	15
286	1
