Mass Spectrum: Benzaldehyde, 4-(methoxymethoxy)-
Formula: C9H10O3
CAS: 6515-21-5
Molecular weight: 166
m/z	intensity
26	3
27	9
28	4
29	115
30	6
31	13
33	0
36	0
37	6
38	20
39	72
40	18
41	1
42	0
43	2
44	4
45	999
46	21
47	3
48	0
49	1
50	32
51	45
52	4
53	4
54	0
55	0
56	0
57	0
58	0
59	7
60	0
61	4
62	12
63	31
64	16
65	48
66	5
67	1
68	0
69	0
71	0
72	0
73	1
74	10
75	10
76	21
77	48
78	5
79	13
80	0
81	0
82	0
84	0
85	0
86	0
87	0
89	0
90	0
91	2
92	12
93	7
94	1
95	0
96	0
98	0
99	0
103	0
104	7
105	20
106	2
107	6
108	1
109	0
115	0
117	0
118	0
119	0
120	0
121	7
122	1
123	0
124	0
126	0
128	0
129	0
133	0
134	0
135	22
136	5
137	0
149	0
150	0
151	0
152	0
165	0
166	75
167	9
168	1
