Mass Spectrum: Tricyclo[4.2.1.1(2,5)]deca-3,7-diene-9,10-diol, stereoisomer
Formula: C10H12O2
CAS: 65181-89-7
Molecular weight: 164
m/z	intensity
25	2
26	38
27	315
28	78
29	138
30	7
31	69
36	1
37	12
38	46
39	456
40	69
41	135
42	24
43	68
44	5
45	3
47	4
48	1
49	8
50	90
51	233
52	92
53	284
54	164
55	259
56	25
57	77
58	9
59	1
60	3
61	8
62	32
63	107
64	31
65	204
66	126
67	84
68	55
69	31
70	30
71	46
72	5
73	9
74	16
75	17
76	17
77	288
78	165
79	150
80	46
81	459
82	999
83	100
84	34
85	32
86	39
87	8
88	3
89	51
90	23
91	398
92	73
93	22
94	55
95	66
96	37
97	11
98	13
99	5
100	1
101	4
102	26
103	111
104	38
105	128
106	13
107	74
108	31
109	4
110	2
113	1
114	0
115	327
116	258
117	816
118	217
119	54
120	17
121	10
122	3
123	2
126	2
127	38
128	122
129	70
130	8
131	125
132	14
133	74
134	7
135	12
136	4
144	5
145	172
146	117
147	12
148	1
163	1
164	8
165	0
