Mass Spectrum: 2-Propylnonanoic acid
Formula: C12H24O2
CAS: 65185-82-2
Molecular weight: 200
m/z	intensity
18	13
27	164
28	46
29	208
31	11
39	107
41	412
42	78
43	282
44	19
45	65
53	35
54	28
55	304
56	54
57	143
58	11
59	34
60	33
67	28
68	16
69	118
70	22
71	37
72	11
73	999
74	43
75	8
79	9
81	16
82	8
83	51
84	27
85	20
86	15
87	115
88	12
96	9
97	30
98	20
99	11
100	12
101	77
102	625
103	34
115	250
116	19
129	112
130	9
143	17
157	52
158	76
159	9
171	59
200	14
