Mass Spectrum: 3-(1-Phenyl-3-methylpyrazol-5-yl)-2-ethylquinazolin-4(3H)-one
Formula: C20H18N4O
CAS: 65183-12-2
Molecular weight: 330
m/z	intensity
29	67
50	211
51	309
63	75
64	65
65	70
75	96
76	617
77	999
78	118
90	113
91	88
92	38
102	143
103	325
104	124
105	96
115	38
116	106
117	47
118	38
119	33
120	31
128	35
129	138
130	673
131	248
132	68
142	35
143	38
144	60
147	64
155	57
156	36
157	875
158	185
160	41
165	35
169	37
170	64
171	203
172	38
183	113
184	54
185	229
186	67
197	46
238	40
239	44
253	45
260	56
274	145
288	60
289	46
301	142
329	121
330	823
331	190
