Mass Spectrum: Pentane, 1-(2,2-dibromocyclopropyl)-
Formula: C8H14Br2
CAS: 6519-43-3
Molecular weight: 268
m/z	intensity
37	4
38	29
39	289
40	59
41	568
42	354
43	503
44	18
50	29
51	118
52	53
53	238
54	77
55	505
56	774
57	59
63	13
65	73
66	44
67	637
68	50
69	412
70	30
71	17
77	33
78	11
79	62
80	18
81	71
82	53
83	134
84	114
85	5
91	12
93	14
95	5
97	12
105	20
107	31
109	999
110	90
117	13
119	31
120	5
121	20
122	4
131	27
132	22
133	47
134	21
135	16
147	9
149	6
162	8
164	5
184	8
186	20
188	9
197	5
199	9
