Mass Spectrum: Isosorbide
Formula: C6H10O4
CAS: 652-67-5
Molecular weight: 146
m/z	intensity
14	5
15	32
16	1
25	1
26	20
27	102
28	46
29	331
30	38
31	216
32	5
33	2
37	6
38	18
39	138
40	69
41	150
42	95
43	617
44	622
45	412
46	10
47	12
49	2
50	7
51	8
52	3
53	22
54	20
55	252
56	66
57	347
58	361
59	64
60	63
61	14
62	1
63	1
65	1
66	2
67	3
68	27
69	417
70	28
71	46
72	6
73	108
74	10
75	13
77	1
79	1
80	1
81	7
82	3
83	5
84	103
85	133
86	999
87	74
88	6
94	1
97	8
98	9
99	17
100	2
101	1
102	50
103	98
104	4
115	2
117	1
128	4
146	28
147	3
