Mass Spectrum: Theophylline-7-acetic acid
Formula: C9H10N4O4
CAS: 652-37-9
Molecular weight: 238
m/z	intensity
42	231
44	999
55	134
56	318
57	268
67	363
68	59
81	152
85	286
86	330
94	38
95	37
108	68
109	484
110	41
122	29
126	28
136	39
137	111
138	10
149	10
153	9
165	29
166	10
180	41
181	9
193	181
194	522
195	40
209	9
220	20
238	337
239	81
