Mass Spectrum: 9-Borabicyclo[3.3.1]nonane, 9-(benzoyloxy)-
Formula: C15H19BO2
CAS: 65212-33-1
Molecular weight: 242
m/z	intensity
24	0
25	1
27	8
28	0
29	8
37	0
38	0
39	11
40	1
41	23
42	4
43	3
49	0
50	8
51	31
52	3
53	7
54	5
55	13
56	1
57	0
62	0
63	0
64	0
65	3
66	3
67	16
68	3
69	3
70	0
73	0
74	1
75	1
76	9
77	186
78	13
79	4
80	2
81	4
82	1
83	0
89	0
90	0
91	3
92	1
93	1
94	1
95	3
96	0
97	0
99	0
103	0
104	2
105	999
106	71
107	4
108	1
109	1
110	0
112	0
115	0
117	0
118	0
119	0
120	0
121	0
122	0
129	0
130	0
131	0
133	1
134	0
135	0
136	0
137	0
140	0
145	0
146	0
147	0
148	0
149	0
150	0
151	1
155	0
156	0
157	0
158	0
159	1
160	0
169	0
170	0
172	0
173	0
174	0
183	0
185	0
186	0
188	0
189	0
198	1
199	2
200	0
201	1
214	0
241	7
242	31
243	5
244	0
