Mass Spectrum: 3-Chloro-N-methylpropylamine
Formula: C4H10ClN
CAS: 65232-62-4
Molecular weight: 107
m/z	intensity
14	2
15	31
26	8
27	41
28	95
29	16
30	113
31	4
39	35
40	9
41	67
42	92
43	50
44	999
45	75
48	1
49	16
51	6
52	3
54	9
55	3
56	33
57	61
58	6
61	2
62	1
63	3
64	1
65	1
68	5
69	1
70	28
71	7
72	3
73	1
75	4
77	4
78	1
90	2
92	1
104	1
106	36
107	246
108	34
109	79
110	8
