Mass Spectrum: Heptano-dibutyrin
Formula: C18H32O6
CAS: 65235-13-4
Molecular weight: 344
m/z	intensity
26	158
27	91
28	25
29	97
31	2
39	59
40	29
41	268
42	99
43	850
44	49
45	17
55	167
56	34
57	87
60	17
69	13
70	49
71	999
72	68
73	19
74	2
77	2
83	4
84	46
85	662
86	48
87	8
89	15
112	6
113	511
114	48
132	13
143	34
144	21
145	74
186	15
199	34
200	13
201	15
214	55
215	118
216	8
243	11
257	11
