Mass Spectrum: Benzoic acid, 2-cyano-, ethyl ester
Formula: C10H9NO2
CAS: 6525-45-7
Molecular weight: 175
m/z	intensity
39	34
42	19
43	16
45	27
50	100
51	120
52	30
62	10
63	17
64	13
65	17
73	9
74	40
75	200
76	200
77	30
78	6
90	10
91	10
92	26
93	6
99	13
100	13
101	19
102	440
103	470
104	60
105	150
106	23
119	50
120	19
129	7
130	999
131	120
132	20
133	6
146	29
147	170
148	86
149	9
160	33
161	4
174	7
175	260
176	34
177	4
