Mass Spectrum: Mitoxantrone
Formula: C22H28N4O6
CAS: 65271-80-9
Molecular weight: 444
m/z	intensity
41	35
42	193
43	134
44	203
45	187
46	6
52	10
53	12
54	20
55	37
56	626
57	46
58	15
60	10
61	34
62	5
63	7
65	8
67	7
68	14
69	23
70	33
71	14
72	9
74	999
75	32
76	7
77	15
78	11
79	8
80	7
81	7
82	9
83	26
84	14
85	8
86	24
88	317
89	21
91	19
92	6
93	7
94	5
95	7
97	28
98	5
99	9
100	12
101	7
102	13
104	9
105	11
106	8
107	6
108	6
109	5
111	22
112	6
113	9
114	13
115	21
116	12
117	9
118	7
119	6
120	6
125	13
126	17
127	22
128	25
129	13
130	9
131	6
132	9
133	5
135	5
137	6
138	9
139	25
140	17
141	15
142	12
143	9
144	11
145	6
146	6
151	9
152	12
153	14
154	32
155	22
156	14
157	10
159	5
162	6
164	9
165	9
166	15
167	18
168	13
169	16
170	12
171	9
172	6
177	5
178	8
179	7
180	8
181	12
182	18
183	20
184	13
185	7
192	5
193	8
194	19
195	14
196	14
197	10
198	12
199	9
205	5
206	10
207	7
208	7
209	18
210	21
211	15
212	10
213	5
221	10
222	26
223	15
224	16
225	12
226	13
227	11
228	5
233	5
234	9
235	13
236	14
237	28
238	17
239	55
240	20
241	16
242	6
249	9
250	27
251	49
252	42
253	24
254	40
255	78
256	16
262	6
263	17
264	20
265	33
266	31
267	52
268	58
269	74
270	23
271	7
275	8
276	5
277	12
278	11
279	126
280	73
281	182
282	60
283	487
284	827
285	153
286	19
290	5
291	20
292	23
293	27
294	20
295	26
296	129
297	582
298	419
299	70
300	11
306	9
307	14
308	14
309	170
310	91
311	21
312	5
320	5
321	5
322	6
323	8
324	22
325	8
326	12
327	14
328	7
333	5
338	13
339	22
340	8
341	7
352	7
353	15
354	7
355	5
356	6
357	11
358	5
368	28
369	30
370	130
371	503
372	107
373	14
413	5
414	6
442	11
444	161
445	52
446	10
