Mass Spectrum: Propane, 2-chloro-1-(2-chloroethyldithio)-
Formula: C5H10Cl2S2
CAS: 65271-02-5
Molecular weight: 204
m/z	intensity
27	298
34	16
35	16
36	133
38	41
39	185
41	976
42	72
45	218
46	82
47	76
48	19
49	98
51	30
57	23
58	69
59	177
60	73
61	53
62	21
63	425
64	286
65	155
66	73
71	19
72	11
73	281
74	74
75	38
76	26
77	999
78	48
79	400
80	16
81	26
91	17
92	291
93	39
94	53
95	12
96	25
99	93
100	14
101	36
105	19
106	47
108	27
110	14
113	15
115	11
127	70
128	981
129	67
130	401
131	16
132	30
141	42
143	17
155	22
162	35
164	22
168	33
169	68
170	18
171	31
190	33
192	27
204	791
205	54
206	593
207	52
208	131
