Mass Spectrum: 2-[4-Chloro-2-nitrophenyl]-1-(2-diethylaminoethyl)-3-formyl-1H-indole
Formula: C21H22ClN3O3
CAS: 65287-47-0
Molecular weight: 399
m/z	intensity
42	44
43	11
44	11
45	0
47	0
49	2
50	1
51	3
52	0
53	0
54	3
56	37
57	10
58	82
59	2
62	1
63	3
64	0
65	1
68	1
69	0
70	8
71	5
72	2
73	1
74	1
75	4
76	3
77	7
78	0
79	0
82	0
83	1
84	14
86	999
87	20
89	7
90	3
91	1
92	0
93	0
94	0
95	0
96	0
97	0
98	2
99	3
100	4
101	2
102	2
103	1
104	1
105	1
107	0
109	0
110	2
111	2
112	1
113	1
114	3
115	1
116	2
117	6
118	1
119	0
120	0
123	1
124	2
125	0
126	3
127	1
128	1
129	1
130	2
132	3
133	0
134	0
135	0
136	1
137	0
138	5
139	2
140	2
141	0
142	0
143	0
144	1
145	0
149	1
150	2
151	3
152	1
153	1
154	1
155	0
160	1
161	1
162	1
163	4
164	4
165	2
166	1
167	0
168	1
169	1
170	0
173	0
174	1
175	2
176	7
177	4
178	2
179	1
180	0
182	0
186	0
187	0
188	2
189	2
190	7
191	3
192	3
193	0
197	0
199	2
200	0
201	3
202	4
203	8
204	4
205	2
206	1
210	0
212	0
213	1
214	1
215	1
216	3
217	3
218	1
219	1
220	1
221	0
224	1
225	0
226	0
227	1
228	0
229	1
230	0
231	0
232	1
233	0
234	0
237	1
238	3
239	2
240	2
241	1
242	0
243	0
244	1
245	1
246	0
248	0
250	0
251	1
252	2
253	2
254	3
255	1
256	1
257	0
264	0
265	1
266	2
267	2
268	1
269	1
270	0
279	0
280	2
281	0
282	1
283	0
309	0
313	1
315	0
398	0
399	2
400	1
401	1
