Mass Spectrum: 3-Chloro-N,N-diethyl-8-methoxy-11H-indolo[3,2-c]quinoline-11-ethanamine
Formula: C22H24ClN3O
CAS: 65287-65-2
Molecular weight: 381
m/z	intensity
41	10
42	22
43	15
44	11
45	3
46	2
47	4
48	0
52	2
53	2
54	3
55	8
56	24
57	17
58	56
59	2
60	2
62	1
63	2
64	1
65	1
67	3
68	2
69	5
70	7
71	7
72	2
73	2
74	2
75	1
76	1
77	4
78	5
79	2
80	1
81	3
82	2
83	1
85	35
86	999
87	57
88	4
89	2
90	1
91	2
95	2
96	1
97	2
98	3
99	4
100	1
101	1
102	0
105	2
106	3
107	1
109	0
110	1
111	1
112	1
113	0
114	0
115	3
123	1
124	2
125	1
129	0
134	2
135	0
137	0
138	0
148	0
149	3
150	2
151	1
152	0
161	0
162	0
163	2
164	3
165	1
174	0
175	1
176	3
177	1
185	0
188	1
189	1
190	4
191	1
201	1
202	1
203	2
204	0
210	2
211	0
212	0
215	1
216	3
217	6
218	2
222	1
224	0
225	0
228	0
229	2
230	1
231	2
232	0
238	4
239	1
240	1
241	0
250	0
251	3
252	14
253	3
254	5
255	0
259	0
263	0
264	0
265	1
266	2
267	1
268	0
274	0
280	1
281	2
282	1
283	1
293	0
294	1
295	9
296	3
297	3
298	0
308	1
309	0
310	0
380	0
381	29
382	7
383	9
384	2
