Mass Spectrum: N,N-Diethyl-11H-indolo[3,2-c]quinoline-11-ethanamine
Formula: C21H23N3
CAS: 65287-62-9
Molecular weight: 317
m/z	intensity
41	10
42	24
43	12
44	12
45	2
47	13
48	3
52	2
53	1
54	3
55	6
56	26
57	14
58	61
59	2
60	1
62	1
63	4
64	1
65	1
67	2
68	2
69	4
70	8
71	7
72	2
73	1
74	2
75	4
76	2
77	5
78	2
79	1
80	0
81	3
82	3
85	68
86	999
87	50
88	5
89	4
90	2
91	1
94	0
95	3
96	2
97	1
98	3
99	4
100	2
101	3
102	2
106	0
107	1
108	2
109	3
110	0
111	1
112	1
113	1
114	1
115	3
116	0
119	0
121	1
122	2
123	0
125	1
126	0
127	1
128	4
129	1
134	1
135	0
137	1
138	0
139	1
140	1
149	1
150	2
151	4
152	1
163	2
164	4
165	1
174	0
175	2
176	7
177	3
178	0
180	0
188	2
189	2
190	5
191	1
201	2
202	3
203	7
204	4
205	0
210	2
214	0
215	1
216	3
217	4
218	14
219	3
228	0
229	8
230	6
231	28
232	9
233	1
241	0
242	3
243	7
244	2
245	5
246	0
262	3
315	1
316	0
317	26
318	6
319	0
