Mass Spectrum: Benzene, 1-(2-bromoethyl)-4-methyl-
Formula: C9H11Br
CAS: 6529-51-7
Molecular weight: 198
m/z	intensity
50	80
51	130
63	110
65	110
77	130
78	60
91	230
103	90
105	999
106	100
115	90
117	200
118	210
119	300
198	160
200	160
