Mass Spectrum: 1,7-Dimethyl-4,10-dioxa-1,7-diazacyclododecane
Formula: C10H22N2O2
CAS: 65301-64-6
Molecular weight: 202
m/z	intensity
54	15
55	36
56	109
57	236
58	364
59	32
70	336
71	11
73	30
79	118
80	20
82	118
83	318
84	91
85	73
86	146
87	32
88	999
89	91
100	136
101	155
102	300
103	25
104	100
105	20
114	59
115	24
119	91
120	20
128	14
132	14
133	11
142	8
143	6
145	11
185	9
202	34
203	6
