Mass Spectrum: Diazene, (4-chlorophenyl)phenyl-, (Z)-
Formula: C12H9ClN2
CAS: 6530-97-8
Molecular weight: 216
m/z	intensity
51	121
75	285
77	999
105	402
111	825
113	275
139	492
141	164
151	79
152	206
153	37
188	10
216	714
218	238
