Mass Spectrum: 1-Phenylthio-1-tert-butyl-3-acetoxy-2-propanone
Formula: C15H20O3S
CAS: 65302-94-5
Molecular weight: 280
m/z	intensity
27	70
28	50
29	190
31	10
39	110
40	10
41	430
42	30
43	999
44	30
45	80
50	10
51	50
52	5
53	30
55	120
56	10
57	290
58	10
59	30
65	80
66	30
67	20
69	740
70	60
71	30
73	60
77	50
78	20
79	10
81	10
82	5
83	70
84	10
85	10
87	20
91	70
92	10
95	20
97	10
99	30
101	80
108	10
109	130
110	90
111	40
113	20
121	20
122	10
123	180
124	20
125	10
128	20
129	10
135	30
136	70
137	50
138	10
143	30
154	10
155	10
171	20
177	10
179	590
180	80
181	30
182	190
183	20
184	10
185	10
218	30
219	5
220	5
221	5
222	5
223	5
224	120
225	10
226	10
280	90
281	20
282	10
