Mass Spectrum: Cyclohexanol, 2,2-dimethyl-, acetate
Formula: C10H18O2
CAS: 65322-50-1
Molecular weight: 170
m/z	intensity
27	91
28	11
29	106
30	4
31	9
33	5
39	89
40	23
41	321
42	45
43	613
44	45
45	35
50	4
51	11
52	7
53	52
54	32
55	307
56	93
57	174
58	17
59	36
60	9
61	16
65	15
66	85
67	466
68	161
69	316
70	47
71	73
72	27
73	5
77	18
78	5
79	29
80	23
81	198
82	667
83	246
84	26
85	50
86	39
87	5
91	13
93	20
94	11
95	378
96	66
97	15
99	11
100	12
101	4
107	12
108	11
109	347
110	999
111	207
112	21
113	196
114	18
115	15
123	6
124	6
125	8
126	21
127	56
128	59
129	4
130	0
155	8
156	0
157	0
