Mass Spectrum: Tricosane-2,4-dione
Formula: C23H44O2
CAS: 65351-36-2
Molecular weight: 352
m/z	intensity
13	2
26	4
27	32
28	4
29	99
30	3
31	8
38	2
39	23
40	9
41	212
42	41
43	541
44	14
45	5
51	2
52	2
53	12
54	17
55	185
56	42
57	179
58	71
59	22
60	2
61	2
65	3
66	4
67	35
68	18
69	93
70	25
71	86
72	93
73	2
74	2
77	2
78	2
79	7
80	16
81	33
82	19
83	59
84	42
85	482
86	23
87	11
91	3
93	7
94	17
95	37
96	20
97	48
98	52
99	13
100	999
101	173
102	14
103	2
105	2
107	6
108	5
109	19
110	6
111	21
112	14
113	154
114	18
115	2
121	8
122	4
123	13
124	25
125	11
126	5
127	11
128	4
135	4
136	2
137	14
138	27
139	7
140	4
141	4
142	22
143	3
149	3
151	6
152	3
153	2
154	7
155	5
156	9
165	2
168	3
169	5
238	2
276	15
277	4
294	7
295	10
296	3
334	20
335	5
337	5
351	2
352	13
353	6
