Mass Spectrum: 2-epi-.alpha.-Funebrene
Formula: C15H24
CAS: 65354-33-8
Molecular weight: 204
m/z	intensity
27	8
29	11
39	19
41	100
47	2
50	3
51	17
52	6
53	29
55	57
56	49
57	17
59	3
63	9
64	2
65	29
66	7
67	21
69	119
70	37
71	5
74	4
77	124
78	18
79	81
80	16
81	17
83	13
84	6
89	2
91	166
92	80
93	287
94	38
103	16
104	5
105	257
106	43
107	59
108	36
109	21
115	29
116	11
117	42
118	31
119	999
120	147
121	157
122	38
123	40
124	6
127	5
128	17
129	6
130	4
131	20
132	4
133	37
134	32
135	27
136	55
137	4
140	2
141	2
145	6
146	14
147	73
148	50
149	11
152	3
154	3
160	2
161	126
162	30
163	3
175	4
176	3
189	23
190	3
204	114
205	25
