Mass Spectrum: 2-Amino-6-benzyloxytoluene
Formula: C14H15NO
CAS: 65361-82-2
Molecular weight: 213
m/z	intensity
39	151
41	94
51	69
63	42
65	458
66	77
77	129
78	30
79	25
89	47
91	999
92	308
94	95
105	12
106	38
107	22
121	50
122	86
123	9
135	15
136	56
167	8
169	6
170	8
180	5
181	6
184	6
196	37
197	11
198	42
212	72
213	554
214	130
