Mass Spectrum: o-Toluic acid, 3-methylbutyl ester
Formula: C13H18O2
CAS: 65382-90-3
Molecular weight: 206
m/z	intensity
25	2
26	17
27	78
28	21
29	131
30	8
39	184
40	34
41	211
42	32
43	359
44	8
50	32
51	62
52	26
53	25
54	6
55	101
56	33
57	163
58	10
59	11
61	6
62	23
63	70
64	29
65	211
66	16
67	5
69	18
70	179
71	364
72	17
73	4
74	9
75	12
76	11
77	44
78	12
79	26
82	3
83	2
84	3
85	5
86	5
87	10
88	4
89	66
90	102
91	583
92	58
93	13
101	3
102	20
103	7
104	5
105	48
106	8
107	6
108	3
113	3
115	2
117	11
118	296
119	999
120	162
121	13
122	3
123	6
130	9
131	3
132	2
133	5
134	9
135	32
136	620
137	87
138	6
149	8
191	18
192	5
205	3
206	96
207	15
