Mass Spectrum: Ergost-4,7,22-trien-3.alpha.-ol
Formula: C28H44O
CAS: 6538-05-2
Molecular weight: 396
m/z	intensity
41	348
43	536
53	65
55	846
56	50
57	241
67	310
69	999
70	87
71	85
77	71
79	198
81	508
82	89
83	248
91	239
92	52
93	245
94	51
95	313
97	78
105	285
107	245
108	51
109	277
110	61
117	112
118	55
119	176
121	109
123	84
124	66
125	176
128	68
129	105
131	191
132	52
133	222
134	57
135	137
137	51
141	99
142	66
143	294
144	90
145	213
146	63
147	163
149	51
155	82
157	325
158	165
159	213
160	51
161	112
169	76
171	117
173	73
175	61
183	87
185	82
197	110
198	54
199	106
211	130
213	53
225	52
226	57
227	79
251	64
253	497
254	112
269	69
271	128
363	242
364	78
378	878
379	274
380	58
396	427
397	135
