Mass Spectrum: 3-Ethoxy-4-methoxyphenol
Formula: C9H12O3
CAS: 65383-57-5
Molecular weight: 168
m/z	intensity
39	100
41	48
52	53
53	67
55	87
65	60
68	55
69	94
79	33
81	29
93	44
96	41
97	267
108	14
111	108
125	999
126	64
137	15
139	21
140	182
153	34
168	580
169	48
