Mass Spectrum: Pennogenin diacetate
Formula: C31H46O6
CAS: 65380-31-6
Molecular weight: 514
m/z	intensity
41	168
43	999
44	8
45	19
49	7
53	32
55	342
56	72
57	132
59	6
61	1
65	11
67	140
69	206
70	24
71	25
72	9
73	13
74	1
77	40
79	94
81	188
82	4
83	63
84	19
85	49
86	1
91	126
93	133
94	4
95	89
97	93
98	1
99	26
100	5
103	3
105	159
106	25
107	105
108	38
109	55
110	2
111	40
112	7
113	25
115	37
117	65
118	4
119	96
120	40
121	62
122	4
123	27
124	12
125	55
126	100
127	25
128	19
129	36
131	85
132	3
133	91
134	8
135	26
137	23
139	72
140	15
141	34
142	12
143	61
144	7
145	95
146	29
147	49
148	16
149	15
151	5
153	90
155	108
157	89
158	38
159	60
160	17
161	37
162	3
163	11
165	15
166	11
167	24
168	4
169	29
171	36
172	11
173	23
174	9
175	12
177	5
179	9
180	24
181	23
182	8
183	25
184	15
185	18
186	1
187	10
189	11
190	7
193	8
195	9
196	1
197	107
198	16
199	24
201	13
209	6
211	18
212	1
213	57
214	18
215	10
223	1
225	7
226	1
227	8
229	2
239	27
240	1
241	2
250	1
251	23
253	11
257	53
258	10
265	13
267	9
268	3
269	1
280	15
281	24
282	21
283	11
298	5
309	1
324	1
325	7
340	13
341	9
367	13
379	134
380	36
381	1
383	1
394	249
395	73
396	17
397	2
411	4
439	508
440	152
441	24
452	2
454	330
455	105
456	19
497	2
512	2
