Mass Spectrum: 3-Benzotriazol-1-yl-butyric acid
Formula: C10H11N3O2
CAS: 654-13-7
Molecular weight: 205
m/z	intensity
33	0
34	1
37	17
38	36
39	148
40	44
41	221
42	45
43	130
44	21
45	216
46	3
47	0
50	61
51	59
52	40
53	6
54	4
55	5
56	1
57	3
59	10
60	4
61	7
62	24
63	112
64	155
65	74
66	9
67	2
69	165
70	11
71	2
72	0
73	3
74	17
75	22
76	55
77	171
78	20
79	11
80	3
81	1
82	0
83	1
84	0
85	1
86	8
87	71
88	9
89	29
90	92
91	999
92	91
93	17
94	2
95	2
96	0
97	0
99	0
100	0
101	0
102	3
103	12
104	22
105	10
106	4
107	1
108	0
109	1
110	0
111	0
112	0
114	0
115	3
116	17
117	98
118	135
119	24
120	84
121	8
122	0
125	0
127	0
128	1
130	55
131	11
132	22
133	4
134	6
135	4
136	0
144	6
146	84
147	7
148	0
149	0
158	1
159	2
160	4
161	1
162	3
163	0
164	0
171	0
176	15
177	21
178	2
179	0
188	1
190	2
191	1
205	346
206	39
207	3
