Mass Spectrum: 4-Decenal, (E)-
Formula: C10H18O
CAS: 65405-70-1
Molecular weight: 154
m/z	intensity
14	1
15	5
26	10
27	170
28	37
29	271
30	6
31	12
37	2
38	11
39	340
40	54
41	985
42	185
43	256
44	25
45	4
46	1
50	16
51	52
52	30
53	197
54	523
55	894
56	312
57	175
58	13
59	2
61	1
62	4
63	12
64	3
65	68
66	56
67	483
68	263
69	401
70	282
71	58
72	7
73	1
74	1
75	1
76	1
77	86
78	25
79	244
80	84
81	333
82	155
83	610
84	999
85	61
86	11
87	1
89	1
91	29
92	4
93	51
94	31
95	109
96	19
97	239
98	255
99	64
100	5
103	1
105	3
106	1
107	21
108	8
109	9
110	291
111	73
112	27
113	4
121	11
122	1
123	4
124	1
125	17
126	5
136	74
137	8
139	1
153	1
154	2
