Mass Spectrum: Pent-2-en-1-yl benzoate
Formula: C12H14O2
CAS: 65416-27-5
Molecular weight: 190
m/z	intensity
27	21
29	8
36	2
38	11
39	43
40	25
41	118
42	18
45	5
50	31
51	91
52	13
53	55
54	9
62	5
63	6
64	9
65	9
67	137
68	211
69	80
74	19
75	8
76	15
77	293
78	26
79	27
85	34
87	5
89	7
92	8
97	16
105	999
106	84
122	7
123	86
124	9
128	9
129	14
130	14
136	5
138	5
157	4
161	6
190	13
191	6
