Mass Spectrum: 1,2,3,4-Tetrahydroisoquinolin-6,7-diol,1-carboxy-1-[3,4-hydroxybenzyl]-
Formula: C17H17NO6
CAS: 65427-91-0
Molecular weight: 331
m/z	intensity
41	35
42	33
43	51
44	817
45	21
46	8
47	4
48	2
49	4
50	48
51	201
52	55
53	54
54	14
55	55
56	8
57	7
58	7
60	7
61	9
62	27
63	41
64	15
65	44
66	40
67	31
68	8
69	11
70	4
71	4
72	1
73	5
74	10
75	13
76	20
77	214
78	178
79	37
80	12
81	18
82	9
83	6
84	3
85	3
86	2
87	4
88	7
89	31
90	10
91	30
92	7
93	6
94	26
95	35
96	8
97	5
98	2
99	2
100	1
101	3
102	5
103	6
104	12
105	44
106	54
107	59
108	9
109	8
110	15
111	3
112	2
113	1
114	3
115	9
116	15
117	12
118	12
119	12
120	5
121	5
122	14
123	558
124	999
125	9
126	8
127	2
128	2
129	2
130	2
131	2
132	8
133	8
134	23
135	18
136	60
137	46
138	8
139	3
140	1
141	2
142	1
143	1
144	2
145	1
146	9
147	9
148	7
149	27
150	10
151	12
152	7
153	172
154	24
155	3
156	1
157	1
160	4
161	37
162	128
163	109
164	513
165	80
166	33
167	5
168	5
169	1
173	1
174	1
175	3
176	5
177	8
178	8
179	40
180	55
181	10
182	3
183	1
185	1
187	2
188	2
189	1
190	4
191	2
192	5
193	4
194	2
195	1
196	1
197	2
199	1
200	1
201	2
202	3
203	1
204	1
205	3
206	1
207	2
208	105
209	17
210	10
211	3
212	2
213	1
214	2
215	1
216	1
217	5
218	9
219	7
220	36
221	7
222	5
223	2
225	1
226	1
227	1
228	1
230	3
236	1
238	4
239	4
240	2
241	1
242	2
244	1
246	1
250	2
251	1
252	2
253	1
254	1
255	3
256	4
257	2
258	9
259	3
260	2
262	1
265	1
266	5
267	4
268	32
269	9
270	5
271	1
272	1
273	1
280	1
281	2
282	5
283	4
284	58
285	33
286	52
287	42
288	8
289	2
294	1
295	1
296	0
297	3
298	4
299	1
300	3
301	1
309	0
312	1
313	1
324	0
331	1
