Mass Spectrum: 2,2'-Trimethylenebis-1,3-dioxolane
Formula: C9H16O4
CAS: 6543-04-0
Molecular weight: 188
m/z	intensity
14	1
15	15
16	0
18	0
19	12
25	0
26	3
27	47
28	18
29	49
30	3
31	23
32	0
37	0
38	1
39	21
40	5
41	40
42	40
43	44
44	21
45	247
46	5
47	0
50	0
51	1
52	0
53	3
54	1
55	35
56	3
57	11
58	6
59	3
60	0
61	0
65	0
66	1
67	5
68	3
69	5
70	4
71	7
73	999
74	30
75	4
78	0
79	0
81	5
82	1
83	3
84	0
85	0
86	7
87	2
88	0
95	3
96	4
97	1
99	81
100	7
101	2
102	0
113	2
114	1
115	0
125	0
126	2
127	0
128	1
143	16
144	1
145	23
146	1
147	0
158	0
171	0
187	8
188	0
189	0
