Mass Spectrum: Acetamide, 2-isocyano-N-(1-phenylethyl)-, Ss)-
Formula: C11H12N2O
CAS: 65484-42-6
Molecular weight: 188
m/z	intensity
27	43
28	88
30	32
38	6
39	41
40	92
41	58
42	289
43	31
44	120
50	27
51	119
52	35
53	17
56	17
57	26
58	86
59	72
63	20
64	6
65	31
66	6
67	11
68	53
69	18
70	41
71	12
74	6
75	10
76	16
77	369
78	157
79	361
80	27
84	11
85	29
89	17
90	10
91	156
92	73
93	12
97	25
102	21
103	222
104	502
105	786
106	999
107	155
108	9
110	7
111	29
115	5
116	14
117	25
118	71
119	128
120	171
121	25
128	7
129	22
130	287
131	175
132	224
133	34
143	100
144	47
145	34
146	87
147	45
148	55
149	8
159	33
160	213
161	110
162	19
171	83
172	13
173	793
174	99
175	7
186	9
187	242
188	690
189	126
190	11
