Mass Spectrum: N-(4-Chlorophenyl)-2-methylbenzamide
Formula: C14H12ClNO
CAS: 65492-63-9
Molecular weight: 245
m/z	intensity
33	0
34	0
35	1
36	5
37	5
38	18
39	80
40	13
41	23
42	2
43	4
44	12
45	3
47	0
49	3
50	17
51	29
52	9
53	3
54	1
55	3
56	1
57	3
58	0
59	0
60	1
61	5
62	19
63	65
64	31
65	192
66	11
67	1
68	0
69	2
70	1
71	2
72	2
73	17
74	7
75	20
76	6
77	9
78	2
79	1
80	0
81	1
82	1
83	2
84	1
85	2
86	2
87	3
88	4
89	50
90	55
91	454
92	35
93	2
95	2
96	2
97	1
98	2
99	30
100	3
101	10
102	2
103	1
104	4
105	1
106	0
107	0
108	0
109	0
110	0
111	6
112	1
113	2
114	0
115	1
116	2
119	999
120	87
121	6
122	0
123	0
124	0
125	3
126	9
127	8
128	4
129	2
130	0
132	0
133	0
134	0
135	0
136	0
137	0
138	0
139	1
140	1
141	0
142	0
145	0
147	0
149	2
150	0
151	1
152	2
153	1
154	0
155	0
159	0
161	0
163	0
164	0
165	1
166	2
167	1
168	0
169	0
171	0
177	0
178	1
179	1
180	6
181	2
182	0
183	0
190	0
191	0
193	5
194	1
195	0
201	0
202	0
203	0
207	0
208	1
209	1
210	1
211	0
212	0
214	1
215	0
216	0
218	0
228	6
229	1
230	2
231	0
241	0
243	0
245	132
246	22
247	40
248	6
249	0
