Mass Spectrum: 1.-beta.-d-Triacetylribofuranosyl-5-iodouracil
Formula: C15H17IN2O9
CAS: 65499-40-3
Molecular weight: 496
m/z	intensity
42	607
43	999
68	174
69	239
85	252
97	274
99	98
115	136
128	225
139	427
157	140
170	123
171	38
191	17
195	31
211	126
217	34
239	80
259	680
260	88
281	20
299	85
321	61
323	54
349	163
366	71
367	21
408	39
409	200
436	6
437	2
455	15
468	10
469	2
496	22
497	8
