Mass Spectrum: Methyl 2-acetylamino-3-methoxybutyrate
Formula: C8H15NO4
CAS: 65499-66-3
Molecular weight: 189
m/z	intensity
41	12
43	334
45	24
47	10
52	1
54	19
56	156
59	999
61	0
69	17
71	39
72	6
74	10
82	0
83	16
84	9
86	19
88	182
98	8
99	81
102	0
113	1
114	5
116	16
126	7
130	35
131	107
132	1
143	3
144	0
156	0
158	9
159	1
190	5
191	0
