Mass Spectrum: Benzyl 2-benzamido-3-O-benzyl-2-deoxy-5,6-O-isopropylidenehexofuranoside
Formula: C30H33NO6
CAS: 65493-16-5
Molecular weight: 503
m/z	intensity
41	3
42	3
43	82
51	9
55	3
57	3
59	15
61	4
63	2
65	36
69	2
72	15
73	18
77	108
78	3
79	13
81	2
83	10
85	7
89	8
91	999
92	72
96	3
97	2
101	166
102	4
105	562
106	40
107	17
108	6
115	3
117	2
122	37
131	2
134	2
143	2
145	10
146	29
147	3
158	2
160	3
161	2
174	7
175	2
176	76
177	10
181	50
182	3
186	11
187	33
188	86
189	22
190	2
200	2
201	3
202	3
203	8
204	25
205	9
211	15
212	4
218	32
224	13
227	65
228	10
230	13
231	10
232	2
233	26
246	2
248	13
264	2
266	223
267	58
268	6
276	12
282	14
289	57
290	36
291	23
295	2
296	31
297	3
304	9
306	13
324	10
354	144
355	29
367	10
380	8
395	19
396	31
397	14
402	22
403	5
412	24
413	2
488	40
489	12
503	2
