Mass Spectrum: 1,3-Naphthalenediol, 1,2,3,4,4a,5,6,7-octahydro-6-[1-(hydroxymethyl)ethenyl]-4,4a-dimethyl-, (1.alpha.,3.beta.,4.beta.,4a.alpha.,6.alpha.)-
Formula: C15H24O3
CAS: 65513-74-8
Molecular weight: 252
m/z	intensity
105	999
183	280
198	170
201	240
216	320
219	100
234	80
237	180
252	10
