Mass Spectrum: Phosphoric acid, dimethyl 3-methyl-4-(methylthio)phenyl ester
Formula: C10H15O4PS
CAS: 6552-12-1
Molecular weight: 262
m/z	intensity
12	3
13	3
14	29
15	999
16	30
20	3
26	7
27	42
28	146
29	57
30	13
31	76
32	26
33	12
34	6
35	1
36	1
37	3
38	18
39	132
40	14
41	34
42	6
43	21
44	10
45	204
46	15
47	96
48	13
49	11
50	40
51	121
52	50
53	35
54	3
55	15
56	3
57	13
58	25
59	24
60	4
61	13
62	26
63	104
64	17
65	87
66	65
67	13
69	77
70	38
71	28
72	16
73	6
74	9
75	14
76	17
77	172
78	92
79	244
80	9
81	18
82	13
83	13
84	25
85	24
86	10
87	6
88	4
89	47
90	16
91	130
92	24
93	84
94	16
95	45
96	12
97	21
98	7
99	5
100	1
101	1
102	10
103	38
104	30
105	38
106	9
107	20
109	635
110	90
111	18
112	4
113	7
115	6
116	4
117	12
118	2
119	8
120	15
121	159
122	23
123	24
124	10
125	69
126	5
127	58
128	1
129	1
131	3
133	3
134	31
135	131
136	33
137	58
138	29
139	47
140	6
141	4
147	1
148	1
149	39
150	17
151	24
152	11
153	143
154	45
155	18
156	3
157	1
165	2
166	3
167	15
168	10
169	4
170	1
171	3
183	3
184	1
185	18
186	2
187	7
197	2
199	10
200	5
201	3
202	13
203	29
204	2
213	3
215	46
216	11
217	47
218	4
219	3
229	5
230	3
231	4
232	6
247	122
248	12
249	5
262	457
263	52
264	23
265	2
