Mass Spectrum: Furan, tetrahydro-2-[(phenylseleno)methyl]-
Formula: C11H14OSe
CAS: 65539-72-2
Molecular weight: 242
m/z	intensity
26	22
27	271
29	67
30	7
31	40
37	7
38	12
39	164
41	273
42	59
43	387
44	9
45	3
49	2
50	64
51	173
52	17
53	26
54	12
55	67
56	16
57	24
59	2
61	1
62	4
63	18
64	3
65	51
66	5
67	21
68	3
69	7
70	3
71	999
72	41
73	4
74	28
75	20
76	23
77	211
78	99
79	7
80	4
81	1
82	1
83	15
84	68
85	276
86	17
87	2
89	12
90	9
91	20
92	14
93	42
94	8
95	11
96	2
101	1
102	3
103	4
104	4
105	10
106	7
107	10
108	2
109	2
113	6
114	5
115	17
116	5
117	31
118	3
119	8
120	1
121	1
122	1
126	3
127	6
128	4
129	9
130	11
131	12
132	2
133	4
135	2
141	1
142	2
143	1
145	1
147	2
149	3
151	2
152	4
153	29
154	42
155	69
156	43
157	162
158	65
159	28
160	15
161	3
162	5
164	8
165	1
166	5
167	9
168	30
169	44
170	65
171	45
172	110
173	16
174	25
175	1
179	1
180	2
181	3
182	2
183	3
184	1
185	1
195	2
197	2
198	2
200	5
236	3
238	42
239	44
240	98
241	12
242	240
243	27
244	46
245	5
