Mass Spectrum: 3-(1,3,5-Cycloheptatrien-7-yl)-2,4-pentanedione
Formula: C12H14O2
CAS: 65548-56-3
Molecular weight: 190
m/z	intensity
14	1
15	23
17	12
18	1
26	2
27	13
28	27
29	3
31	1
37	1
38	7
39	54
40	4
41	18
42	8
43	766
44	18
45	5
50	14
51	45
52	18
53	9
54	1
55	20
56	1
57	1
58	2
61	2
62	8
63	31
64	7
65	106
66	8
67	2
69	10
70	3
71	4
72	2
74	5
75	7
76	9
77	64
78	64
79	23
80	1
81	1
82	2
83	1
84	1
85	27
86	3
87	2
89	24
90	18
91	999
92	86
93	4
97	7
98	1
99	1
100	20
101	4
102	10
103	45
104	25
105	188
106	23
107	4
115	33
116	6
117	9
118	1
119	9
120	1
126	1
127	19
128	42
129	138
130	25
131	43
132	9
133	34
134	4
141	1
144	1
145	17
146	4
147	925
148	189
149	16
150	1
157	2
165	1
171	1
172	8
173	6
175	2
187	9
188	18
189	2
190	11
191	2
