Mass Spectrum: Benzenesulfonamide, 4-methyl-N-[3-[[(4-methylphenyl)sulfonyl]amino]propyl]-N-[3-(2-oxoazacyclotridec-1-yl)propyl]-
Formula: C32H49N3O5S2
CAS: 65545-59-7
Molecular weight: 619
m/z	intensity
70	260
84	110
91	999
98	160
114	100
123	130
132	250
142	140
155	430
198	850
210	310
224	200
238	200
241	280
253	110
267	480
293	140
313	480
322	140
408	30
464	80
619	5
