Mass Spectrum: Tricyclo[2.2.1.0(2,6)]heptan-3-ol, acetate
Formula: C9H12O2
CAS: 6555-48-2
Molecular weight: 152
m/z	intensity
40	30
41	110
43	999
44	30
51	50
53	70
54	40
55	90
65	60
66	390
67	110
68	40
77	120
78	60
79	200
80	30
81	150
82	40
90	30
91	320
92	460
93	80
95	80
109	70
110	160
126	20
136	10
152	120
