Mass Spectrum: Methyl-.beta.-d-ribopyranoside, phosphite triester
Formula: C6H9O5P
CAS: 65562-16-5
Molecular weight: 192
m/z	intensity
41	441
42	100
43	274
44	29
45	171
46	10
47	632
48	69
49	25
50	18
51	27
52	31
53	117
54	53
55	279
56	28
57	204
58	28
59	25
60	8
61	142
62	27
63	20
64	8
65	73
66	2
67	14
68	735
69	955
70	89
71	62
72	4
73	25
74	25
75	10
76	2
77	18
78	4
79	158
80	4
81	64
82	10
83	5
84	5
85	144
86	40
87	6
89	999
90	36
91	10
92	1
93	5
95	6
96	2
97	7
98	1
99	6
102	146
103	264
104	220
105	15
106	5
107	22
108	2
111	3
112	4
113	44
114	0
115	3
116	1
117	34
118	2
119	10
120	3
121	1
122	0
123	0
124	0
129	15
130	1
131	3
132	139
133	40
134	7
135	5
136	0
149	4
161	108
162	53
163	5
164	4
192	5
193	0
