Mass Spectrum: 2,2,2-Trifluoro-1-phenylethyl nitrate
Formula: C8H6F3NO3
CAS: 65560-58-9
Molecular weight: 221
m/z	intensity
17	10
18	50
26	10
27	20
28	40
29	20
30	70
31	10
32	10
36	10
37	10
38	10
39	30
46	100
49	10
50	70
51	170
52	30
53	10
57	10
62	10
63	10
69	90
74	20
75	20
76	20
77	999
78	100
79	20
83	10
85	10
88	10
89	10
90	20
94	20
105	320
106	100
107	30
108	10
109	60
119	10
121	10
122	10
123	10
124	10
127	60
139	10
147	10
152	10
159	50
175	90
176	10
221	210
222	10
