Mass Spectrum: Alantolactone, 4.alpha.,4A.alpha.-epoxy-
Formula: C15H20O3
CAS: 65563-75-9
Molecular weight: 248
m/z	intensity
33	30
34	3
36	2
37	6
39	535
41	999
43	395
45	12
47	0
48	0
51	173
53	414
55	495
57	48
59	6
60	2
61	3
63	40
65	133
67	432
69	409
71	41
72	4
73	5
74	7
75	8
77	202
79	289
81	564
82	88
83	44
84	26
85	5
87	3
88	7
89	9
91	207
93	246
94	158
95	227
96	89
97	114
98	27
99	7
102	3
103	24
105	123
107	184
109	586
110	78
111	57
112	6
113	2
115	29
117	52
119	105
121	112
123	251
124	48
125	112
126	148
127	18
128	14
129	17
131	49
133	88
134	51
135	51
136	24
137	50
138	24
139	13
140	1
141	6
143	21
144	11
145	50
146	18
147	35
149	175
150	52
151	85
152	48
153	9
154	1
155	3
156	3
157	8
159	50
160	20
161	32
162	16
163	23
164	7
165	5
167	22
169	12
171	20
172	5
173	24
174	13
175	21
176	27
177	18
178	14
179	12
180	3
181	1
182	0
184	1
185	3
187	27
188	7
189	23
191	31
192	31
193	10
194	11
195	1
197	0
201	7
202	8
204	106
205	45
206	26
207	4
215	9
217	13
219	24
220	29
221	2
229	2
230	8
232	10
233	42
234	7
235	0
248	99
249	10
250	1
