Mass Spectrum: Benzenamine, N-methyl-N-2,6-octadienyl-
Formula: C15H21N
CAS: 65564-70-7
Molecular weight: 215
m/z	intensity
27	124
28	130
29	66
30	61
31	6
36	4
37	24
38	60
39	236
40	50
41	100
42	51
43	13
44	39
46	3
47	8
48	1
49	13
50	97
51	212
52	71
53	77
54	58
55	113
56	10
57	10
58	3
59	4
60	2
61	10
62	25
63	64
64	41
65	168
66	89
67	78
68	13
69	10
70	6
71	2
73	7
74	29
75	18
76	17
77	378
78	116
79	257
80	28
81	14
82	5
83	2
85	3
89	3
90	5
91	71
92	42
93	36
94	214
95	14
96	3
97	2
98	3
99	2
100	1
102	2
103	9
104	91
105	72
106	999
107	900
108	75
109	4
115	4
116	2
117	11
118	19
119	14
120	130
121	23
122	2
126	1
128	2
129	5
130	19
131	29
132	28
133	18
134	13
135	4
141	1
143	6
144	29
145	9
146	192
147	31
148	4
156	2
157	0
158	7
159	7
160	37
161	28
162	10
169	3
170	1
171	2
172	27
173	4
174	1
186	4
187	1
188	1
189	1
200	2
202	1
207	1
214	8
215	76
216	14
