Mass Spectrum: l-Proline, 5-(cyanomethylene)-, methyl ester, (E)-
Formula: C8H10N2O2
CAS: 65571-72-4
Molecular weight: 166
m/z	intensity
26	7
27	30
28	20
29	6
30	10
31	4
37	2
38	7
39	46
40	13
41	80
42	19
43	17
44	3
45	3
49	1
50	5
51	22
52	31
53	56
54	84
55	18
56	6
57	8
59	16
60	2
63	3
64	3
65	3
66	8
67	44
68	7
69	9
70	2
71	3
75	13
76	5
77	4
78	32
79	27
80	107
81	58
82	12
83	6
84	3
87	1
90	3
91	4
92	2
93	2
94	5
95	28
96	4
97	1
99	2
105	51
106	45
107	999
108	92
109	6
110	5
113	9
120	2
121	14
122	1
123	5
133	13
134	2
135	1
137	1
138	6
139	2
166	217
167	17
168	2
