Mass Spectrum: 2H-Pyrrole-2-carboxylic acid, 5-ethoxy-3,4-dihydro-, methyl ester, (S)-
Formula: C8H13NO3
CAS: 65571-69-9
Molecular weight: 171
m/z	intensity
26	27
27	134
28	248
29	129
30	20
31	9
38	5
39	33
40	11
41	312
42	31
43	11
44	7
45	15
52	5
53	3
54	29
55	87
56	144
57	15
58	4
59	39
60	7
63	7
66	11
67	7
68	13
69	8
70	2
72	2
82	16
83	21
84	999
85	65
86	5
87	60
88	3
91	2
94	2
95	3
96	3
98	2
99	2
100	7
110	6
111	2
112	903
113	69
114	5
115	5
127	6
128	4
142	2
143	25
144	4
156	4
170	1
171	73
172	16
173	2
