Mass Spectrum: 2H-1-Benzoxacyclohexadecin-16(18aH)-one, 3,4,5,6,7,8,9,10,11,12,13,14-dodecahydro-18,18a-dihydroxy-2-methyl-
Formula: C20H32O4
CAS: 65580-01-0
Molecular weight: 336
m/z	intensity
41	210
43	190
44	800
45	280
55	220
57	90
67	50
69	100
123	310
124	999
125	100
136	50
137	140
318	60
336	100
