Mass Spectrum: 2H-Pyran, 5,6-dihydro-2-methoxy-
Formula: C6H10O2
CAS: 6559-34-8
Molecular weight: 114
m/z	intensity
37	40
38	70
39	460
40	30
41	140
42	42
43	68
44	22
45	30
46	45
47	68
48	5
49	35
50	125
51	130
52	75
53	415
54	180
55	390
56	35
57	26
58	31
59	38
60	5
61	35
62	5
63	5
65	15
66	5
67	5
68	15
69	150
70	17
71	25
72	23
81	135
82	400
83	999
84	160
85	50
86	25
87	15
91	50
92	10
97	6
99	13
100	5
112	5
113	80
114	130
115	15
