Mass Spectrum: 1-Dimethyl(prop-2-enyl)silyloxyoctadecane
Formula: C23H48OSi
CAS: 65597-98-0
Molecular weight: 368
m/z	intensity
39	18
40	62
41	231
42	59
43	365
44	43
45	45
47	25
50	10
51	12
53	20
54	27
55	225
56	52
57	300
58	30
59	89
60	15
61	99
62	12
63	10
67	50
68	32
69	221
70	50
71	145
72	15
73	39
74	12
75	999
76	75
77	73
78	10
79	11
80	10
81	50
82	30
83	231
84	33
85	95
87	26
88	16
89	165
90	21
91	15
93	20
95	40
96	17
97	171
98	25
99	99
100	15
101	135
102	23
103	21
109	20
110	13
111	85
112	15
113	20
115	50
116	11
117	15
123	11
125	31
126	15
127	11
128	20
129	75
130	15
131	20
133	21
139	15
149	20
150	10
158	15
173	20
207	15
213	15
310	15
319	10
320	11
321	10
327	703
328	215
329	75
