Mass Spectrum: Pregnane-3,20-diol, (3.alpha.,5.beta.)-, 2TBDMS derivative
Formula: C33H64O2Si2
CAS: 65598-77-8
Molecular weight: 548
m/z	intensity
67	16
68	134
69	13
73	102
75	310
76	21
77	18
78	16
81	32
83	17
93	16
95	58
97	10
103	999
104	96
105	44
107	32
109	37
115	28
117	253
118	24
119	24
121	58
123	19
131	13
133	24
135	55
137	9
145	670
146	87
147	67
149	46
159	394
160	68
161	48
163	25
173	21
175	47
177	13
187	19
189	41
191	18
193	23
201	31
203	19
208	21
210	11
213	12
215	27
217	10
221	40
222	12
223	9
227	13
229	11
253	11
255	29
257	44
258	12
267	16
268	10
269	17
270	12
281	19
283	588
284	150
285	51
286	10
295	25
327	9
343	12
359	92
360	26
369	13
373	18
389	11
401	28
415	19
449	16
491	655
492	292
493	110
494	34
533	10
