Mass Spectrum: 1-Dichloromethyl(dimethyl)silyloxyoctadecane
Formula: C21H44Cl2OSi
CAS: 65598-02-9
Molecular weight: 410
m/z	intensity
26	12
27	118
28	19
29	299
30	6
31	6
36	5
37	15
38	8
39	89
40	17
41	489
42	117
43	745
44	75
45	55
47	18
51	7
53	26
54	33
55	405
56	89
57	446
58	27
59	79
60	9
61	89
63	22
65	11
67	68
68	44
69	269
70	45
71	168
72	8
73	8
74	8
75	999
76	79
77	67
78	11
79	25
80	9
81	51
82	29
83	219
84	25
85	79
86	7
87	18
88	6
89	158
90	15
91	12
93	15
94	6
95	82
96	13
97	168
98	18
99	38
101	49
106	19
107	11
108	17
109	9
111	68
113	79
115	96
117	9
121	5
123	9
125	15
127	9
129	13
143	8
212	8
241	7
309	6
326	49
327	649
328	172
329	42
