Mass Spectrum: Androstan-17-ol, 4,4-dimethyl-, (5.alpha.,17.beta.)-
Formula: C21H36O
CAS: 6561-00-8
Molecular weight: 304
m/z	intensity
25	2
26	17
27	77
29	195
30	8
31	19
34	2
35	3
36	8
37	13
38	15
39	118
40	33
41	762
42	85
43	639
44	49
45	41
46	7
47	8
48	9
49	5
50	6
51	17
52	14
53	200
54	76
55	856
56	145
57	271
58	251
59	20
60	26
61	4
62	2
63	7
64	5
65	86
66	54
67	667
68	309
69	905
70	144
71	285
72	31
73	16
74	25
75	14
76	12
77	203
78	58
79	453
80	192
81	999
82	366
83	334
84	84
85	71
86	15
87	23
88	19
89	8
90	8
91	375
92	109
93	531
94	285
95	934
96	185
97	370
98	61
99	17
100	10
101	10
102	18
103	28
104	30
105	328
106	139
107	505
108	243
109	689
110	179
111	226
112	27
113	12
114	7
115	36
116	13
117	81
118	38
119	225
120	121
121	406
122	277
123	959
124	241
125	145
126	26
127	6
128	17
129	30
130	20
131	170
132	54
133	275
134	149
135	337
136	362
137	583
138	224
139	59
140	10
141	15
142	11
143	16
144	10
145	122
146	59
147	399
148	334
149	636
150	217
151	351
152	127
153	46
154	12
155	10
156	7
157	13
158	9
159	88
160	54
161	190
162	123
163	203
164	82
165	122
166	412
167	192
168	159
169	24
170	4
171	9
172	11
173	338
174	113
175	263
176	143
177	580
178	318
179	171
180	181
181	31
182	5
183	4
184	5
185	18
186	10
187	35
188	15
189	112
190	152
191	208
192	102
193	52
194	24
195	4
196	4
197	4
198	4
199	7
200	5
201	351
202	89
203	110
204	50
205	33
206	26
207	41
208	11
209	3
210	6
211	4
212	2
213	3
214	3
215	29
216	12
217	64
218	40
219	242
220	131
221	33
222	9
223	9
224	2
225	3
226	2
227	4
228	3
229	17
230	10
231	109
232	30
233	33
234	16
235	7
236	4
237	2
238	3
239	2
240	2
241	4
242	3
243	16
244	14
245	548
246	204
247	196
248	44
249	14
250	3
254	4
255	5
256	4
257	5
258	7
259	19
260	274
261	76
262	15
263	6
264	3
269	6
270	4
271	176
272	54
273	13
274	5
275	18
276	8
277	4
279	4
280	2
281	3
282	2
283	2
284	6
285	12
286	110
287	62
288	15
289	379
290	121
291	13
292	2
302	27
303	12
304	945
305	234
306	42
307	4
