Mass Spectrum: 4-Nitrophenyl-piperidin-1-yl-methanone oxime
Formula: C12H15N3O3
CAS: 65623-48-5
Molecular weight: 249
m/z	intensity
29	60
30	130
39	61
41	141
42	137
50	49
51	40
55	150
56	258
57	50
75	59
76	119
84	999
85	99
90	30
91	30
102	109
103	159
104	29
119	40
149	169
150	59
186	50
203	39
232	160
233	119
234	19
249	209
250	29
