Mass Spectrum: 4-Chlorophenyl-piperidin-1-yl-methanone oxime
Formula: C12H15ClN2O
CAS: 65623-49-6
Molecular weight: 238
m/z	intensity
29	60
30	58
39	61
41	141
42	118
50	59
51	48
55	139
56	190
57	50
75	110
76	49
84	999
85	128
102	119
103	20
111	100
113	39
137	278
138	248
139	189
140	99
141	39
153	20
155	39
193	30
221	228
222	99
223	99
238	160
239	20
240	49
