Mass Spectrum: 3a,6-Methano-3ah-inden-4(1H)-one, hexahydro-, (3a.alpha.,6.alpha.,7a.alpha.)-
Formula: C10H14O
CAS: 65649-04-9
Molecular weight: 150
m/z	intensity
26	6
27	102
28	22
29	34
38	9
39	160
40	38
41	155
42	14
43	11
50	13
51	47
52	31
53	121
54	28
55	43
57	3
62	1
63	14
64	3
65	58
66	49
67	118
68	32
69	7
75	7
77	149
78	85
79	456
80	254
81	683
82	55
91	115
92	28
93	226
94	145
95	28
96	5
103	7
104	19
105	47
106	999
107	276
108	65
109	16
115	2
117	27
118	4
119	36
120	4
121	203
122	75
123	4
131	4
132	29
133	10
135	25
136	2
149	17
150	360
151	27
