Mass Spectrum: Codeine-propionyl
Formula: C21H25NO4
CAS: 65644-90-8
Molecular weight: 355
m/z	intensity
57	999
59	721
69	212
70	307
77	169
81	419
82	128
91	127
94	218
109	127
115	191
124	294
128	76
141	98
144	102
146	124
149	128
152	119
162	322
165	116
175	120
178	76
188	120
189	65
207	59
209	66
214	216
218	350
224	135
225	159
229	439
239	47
240	85
241	51
266	85
267	92
281	60
282	564
283	131
296	12
298	112
299	34
340	26
341	13
355	533
356	142
