Mass Spectrum: Fenretinide
Formula: C26H33NO2
CAS: 65646-68-6
Molecular weight: 391
m/z	intensity
46	28
48	51
51	16
52	54
53	64
54	68
55	241
56	183
57	204
58	297
59	45
60	129
61	28
64	16
65	29
66	25
67	124
68	99
69	508
70	114
71	156
72	33
73	111
74	20
77	84
78	53
79	120
80	107
81	253
82	179
83	186
84	92
85	102
86	27
87	48
88	10
91	116
92	34
93	185
94	87
95	360
96	98
97	113
98	70
99	53
100	21
101	24
102	8
103	13
104	18
105	315
106	74
107	432
108	222
109	999
110	160
111	142
112	39
113	31
114	11
115	32
116	15
117	35
118	53
119	407
120	171
121	324
122	125
123	226
124	64
125	68
126	28
127	19
128	16
129	69
130	21
131	94
132	50
133	297
134	91
135	548
136	133
137	118
138	44
139	32
140	23
141	23
142	27
143	57
144	35
145	110
146	64
147	187
148	197
149	185
150	67
151	149
152	65
153	22
154	13
155	21
156	23
157	84
158	47
159	253
160	76
161	292
162	71
163	62
164	55
165	63
166	37
167	30
168	12
169	27
170	17
171	86
172	59
173	115
174	58
175	257
176	96
177	102
178	29
179	22
180	14
181	12
182	10
183	26
184	25
185	75
186	38
187	70
188	50
189	157
190	52
191	69
192	41
193	25
194	10
195	13
196	9
197	32
198	21
199	55
200	77
201	192
202	258
203	62
204	53
205	31
206	22
207	13
209	11
210	8
211	23
212	25
213	63
214	34
215	36
216	24
217	36
218	28
219	16
220	13
223	11
224	8
225	30
226	19
227	29
228	17
229	12
230	12
231	13
233	8
239	19
240	30
241	34
242	26
243	15
250	14
252	19
253	10
254	63
255	94
256	37
257	14
267	20
268	25
269	11
270	23
271	17
272	8
281	8
282	18
283	19
391	35
392	9
