Mass Spectrum: 2H-Azirin-3-amine, N,N-diethyl-2-methyl-2-(1,2,3-triphenyl-2-cyclopropen-1-yl)-
Formula: C28H28N2
CAS: 65659-99-6
Molecular weight: 392
m/z	intensity
43	999
45	790
56	160
61	320
72	170
73	300
100	120
105	40
111	180
139	370
151	30
154	100
178	100
192	60
207	20
267	60
320	30
349	30
363	100
377	20
392	30
