Mass Spectrum: 2-Bromo-1,3-bis(methoxymethyl)benzene
Formula: C10H13BrO2
CAS: 65654-53-7
Molecular weight: 244
m/z	intensity
12	2
13	3
14	17
15	433
16	12
17	18
18	42
26	10
27	54
28	26
29	363
30	48
31	42
32	3
33	1
35	1
36	7
37	10
38	42
39	190
40	16
41	32
42	4
43	22
44	16
45	572
46	13
47	23
48	1
49	6
50	115
51	254
52	45
53	28
54	2
55	12
56	3
57	8
58	2
59	6
60	1
61	24
62	103
63	290
64	53
65	199
66	18
67	6
68	1
69	5
70	3
71	4
72	1
73	8
74	61
75	494
76	93
77	382
78	158
79	90
80	16
81	10
82	17
83	3
84	2
85	9
86	20
87	24
88	20
89	302
90	197
91	420
92	102
93	11
94	1
95	5
96	1
97	3
98	5
99	3
101	10
102	64
103	248
104	411
105	999
106	100
107	17
108	2
109	1
112	1
115	5
116	4
117	10
118	64
119	170
120	23
121	21
122	8
123	2
125	4
127	1
128	1
129	1
130	1
131	4
132	2
133	38
134	79
135	203
136	19
137	1
139	4
140	1
141	3
143	3
145	2
147	1
149	15
150	4
153	1
155	6
156	1
157	4
158	1
159	1
165	287
166	31
167	4
168	3
169	25
170	5
171	23
172	2
181	1
182	17
183	128
184	27
185	124
186	11
187	1
197	51
198	6
199	136
200	13
201	86
202	6
203	1
211	2
212	28
213	39
214	31
215	39
216	5
227	4
228	1
229	4
230	1
231	0
243	27
244	63
245	35
246	60
247	7
