Mass Spectrum: Benzenamine, 4-[2-(2-methoxyethoxy)ethoxy]-
Formula: C11H17NO3
CAS: 65673-48-5
Molecular weight: 211
m/z	intensity
14	1
15	58
16	1
18	2
26	9
27	42
28	48
29	173
30	9
31	191
32	2
33	7
37	1
38	5
39	41
40	4
41	23
42	7
43	50
44	5
45	103
46	2
50	4
51	10
52	43
53	72
54	21
55	3
57	2
58	6
59	799
60	26
61	2
62	3
63	12
64	13
65	96
66	13
67	3
68	3
75	2
76	1
77	7
78	5
79	10
80	137
81	23
82	4
89	1
90	2
91	12
92	69
93	26
94	18
95	2
96	1
103	266
104	14
105	2
106	7
107	4
108	276
109	999
110	68
111	4
118	2
119	2
120	3
121	1
122	18
123	18
124	1
134	4
135	8
136	28
137	8
148	1
151	1
152	1
153	2
166	8
167	3
179	1
211	343
212	45
213	4
