Mass Spectrum: Oxazolidine, 2-methyl-2-phenyl-
Formula: C10H13NO
CAS: 65687-97-0
Molecular weight: 163
m/z	intensity
15	11
27	32
30	14
39	27
41	15
42	69
43	59
44	96
45	56
50	27
51	89
52	18
63	20
65	46
66	14
74	22
75	12
76	24
77	227
78	46
79	11
86	221
87	13
89	16
90	17
91	999
92	83
102	17
103	87
104	259
105	231
106	19
117	43
118	14
119	10
120	14
130	22
131	13
132	925
133	120
148	454
149	51
162	11
163	57
164	11
