Mass Spectrum: Pseudokryptogenin
Formula: C27H40O3
CAS: 65682-56-6
Molecular weight: 412
m/z	intensity
41	536
43	999
44	19
45	111
51	17
53	158
55	597
57	679
58	11
59	30
65	90
67	276
69	248
70	14
71	44
73	32
77	235
79	322
81	218
82	14
83	50
85	160
91	425
92	47
93	224
94	26
95	124
97	93
98	4
99	19
103	62
105	376
106	61
107	161
108	13
109	126
111	40
112	4
113	6
115	101
117	206
118	19
119	199
120	18
121	157
122	34
123	57
124	17
125	25
126	7
127	50
128	86
129	100
131	169
132	50
133	113
135	173
137	174
138	28
139	22
140	26
141	82
142	45
143	92
145	217
146	23
147	272
148	25
149	45
150	4
152	51
153	64
154	37
155	53
156	10
157	123
159	214
160	61
161	97
162	6
163	41
165	33
166	25
167	33
168	27
169	44
170	6
171	60
172	9
173	91
174	8
175	46
177	18
179	27
181	83
183	101
184	9
185	91
186	22
187	29
188	9
189	5
191	4
193	12
195	52
197	89
198	23
199	40
201	57
202	4
208	59
209	30
211	37
212	4
213	33
215	65
216	4
219	4
220	4
221	21
223	17
225	11
227	16
229	4
231	6
233	9
235	17
236	4
237	16
239	29
249	18
253	9
259	18
265	4
267	12
279	10
281	15
299	10
311	4
337	4
339	427
340	93
341	17
369	4
379	57
380	14
395	103
397	736
398	186
399	30
411	14
412	612
413	162
414	23
