Mass Spectrum: Benzeneacetic acid, 3,5-bis(phenylmethoxy)-, 1-methyl-7-oxo-7-[2-(trimethylsilyl)ethoxy]heptyl ester
Formula: C35H46O6Si
CAS: 65690-34-8
Molecular weight: 590
m/z	intensity
26	4
27	33
28	6
29	73
30	5
31	8
38	3
39	39
40	7
41	126
42	34
43	158
44	22
45	48
46	9
47	4
48	5
49	2
50	4
51	13
52	4
53	12
54	13
55	163
56	38
57	122
58	14
59	19
60	80
61	26
62	3
63	7
64	9
65	66
66	6
67	28
68	15
69	78
70	24
71	58
72	10
73	276
74	37
75	62
76	7
77	14
78	4
79	9
80	5
81	38
82	18
83	55
84	24
85	39
86	6
87	15
88	3
89	10
90	8
91	999
92	137
93	12
94	7
95	25
96	14
97	62
98	25
99	16
100	5
101	25
102	4
103	3
104	4
105	17
106	5
107	10
108	5
109	13
110	8
111	19
112	10
113	10
114	3
115	13
116	9
117	12
118	4
119	5
120	2
121	6
122	4
123	14
124	9
125	44
126	9
127	20
128	5
129	40
130	6
131	11
132	4
133	4
134	2
135	6
136	4
137	7
138	5
139	7
140	5
141	11
142	5
143	15
144	3
145	6
146	2
147	5
148	3
149	22
150	5
151	6
152	4
153	6
154	4
155	12
156	3
157	9
158	3
159	2
160	0
161	2
162	1
163	3
164	2
165	7
166	4
167	10
168	8
169	6
170	2
171	11
172	2
173	4
174	2
175	2
176	2
177	2
178	3
179	16
180	81
181	161
182	28
183	9
184	3
185	11
186	3
187	3
188	1
189	1
190	6
191	4
192	2
193	3
194	3
195	9
196	7
197	12
198	4
199	43
200	10
201	5
202	1
203	1
204	0
205	2
206	1
207	2
208	3
209	3
210	4
211	25
212	14
213	15
214	5
215	74
216	17
217	7
218	2
219	3
220	1
221	2
222	2
223	4
224	2
225	10
226	2
227	4
228	5
229	4
230	2
231	1
232	1
233	3
234	1
235	1
236	4
237	3
238	2
239	9
240	10
241	9
242	5
243	4
245	1
247	1
248	1
251	1
252	1
253	2
254	1
255	7
256	15
257	49
258	14
259	6
260	1
261	1
262	1
263	1
264	3
265	3
266	1
267	2
268	1
269	2
270	3
271	8
272	2
273	2
274	1
275	1
276	1
277	0
278	1
279	1
280	2
281	1
282	1
283	3
284	8
285	12
286	7
287	4
288	2
289	5
290	2
291	1
294	0
295	1
296	1
297	1
298	1
299	2
300	2
301	5
302	9
303	67
304	19
305	3
310	1
311	2
312	7
313	8
314	3
315	3
316	1
317	0
319	1
320	1
327	1
328	4
329	2
330	85
331	73
332	37
333	10
334	2
335	1
336	1
337	2
338	1
339	2
340	1
341	1
342	1
343	1
344	1
345	0
346	0
347	30
348	27
349	15
350	2
351	1
352	0
353	1
354	2
355	2
356	1
357	1
358	0
359	1
360	1
361	5
362	1
363	0
364	1
365	2
366	1
367	2
368	4
369	1
370	1
371	0
372	0
373	1
374	1
375	4
376	3
377	2
378	1
379	1
380	1
381	2
382	1
383	1
384	0
385	0
390	4
391	2
392	0
393	0
394	1
395	2
396	1
399	1
402	1
403	1
404	13
405	29
406	8
407	2
408	1
409	2
410	1
411	0
417	1
419	27
420	34
421	15
422	4
423	3
424	0
425	1
426	1
427	1
428	1
429	1
430	2
431	0
433	3
434	1
435	0
448	29
449	10
450	3
451	1
452	0
453	1
454	0
455	1
456	0
457	0
470	1
471	54
472	19
473	5
474	2
489	3
490	4
491	2
495	1
496	0
500	1
501	1
509	1
521	0
522	1
523	2
524	0
529	0
530	1
531	0
532	0
533	1
534	2
535	3
536	2
537	1
539	0
548	0
549	0
550	1
551	2
552	1
553	0
560	0
561	0
562	12
563	4
564	1
565	0
566	0
575	0
576	0
577	1
578	0
579	0
590	90
591	41
592	12
593	3
594	0
