Mass Spectrum: 7-Oxooctanoic acid, 2-trimethylsilylethyl ester
Formula: C13H26O3Si
CAS: 65690-30-4
Molecular weight: 258
m/z	intensity
25	0
26	6
27	36
28	17
29	37
30	1
31	13
36	0
37	0
38	1
39	29
40	8
41	72
42	50
43	726
44	44
45	126
46	8
47	27
48	2
49	1
50	0
51	2
52	1
53	14
54	10
55	164
56	16
57	21
58	83
59	63
60	14
61	39
62	2
63	2
64	3
65	2
66	2
67	15
68	8
69	60
70	15
71	31
72	43
73	999
74	103
75	726
76	48
77	35
78	2
79	10
80	7
81	85
82	9
83	53
84	15
85	68
86	13
87	15
88	6
89	7
90	2
91	5
92	1
93	10
94	6
95	211
96	20
97	50
98	51
99	28
100	7
101	41
102	5
103	7
104	2
105	11
106	1
107	2
108	1
109	1
110	1
111	5
112	54
113	18
114	16
115	55
116	41
117	691
118	70
119	34
120	2
121	2
122	6
123	27
124	5
125	31
126	3
127	5
128	2
129	101
130	116
131	27
132	33
133	6
134	1
135	1
136	0
137	1
138	0
139	4
140	27
141	47
142	7
143	206
144	31
145	56
146	9
147	3
148	1
149	2
150	1
151	2
152	1
153	5
154	1
155	21
156	5
157	32
158	8
159	11
160	12
161	2
162	1
163	0
164	0
165	1
166	0
167	1
168	1
169	8
170	2
171	47
172	8
173	404
174	60
175	19
176	2
177	1
178	0
179	4
180	1
181	1
182	0
183	1
184	0
185	4
186	7
187	21
188	11
189	2
190	0
196	0
197	61
198	10
199	8
200	1
201	1
211	0
212	6
213	2
214	0
215	45
216	7
217	3
218	0
219	0
229	1
230	4
231	5
232	1
233	0
243	9
244	1
245	0
258	0
