Mass Spectrum: Phosphonothioic difluoride, phenyl-
Formula: C6H5F2PS
CAS: 657-40-9
Molecular weight: 178
m/z	intensity
51	254
63	99
64	151
65	173
69	224
74	92
75	81
76	85
77	43
78	55
94	45
107	41
108	92
109	999
110	75
111	48
127	107
139	44
145	29
146	51
158	22
159	26
175	99
176	15
177	55
178	882
179	92
180	70
