Mass Spectrum: Metformin
Formula: C4H11N5
CAS: 657-24-9
Molecular weight: 129
m/z	intensity
12	1
13	6
14	3
15	32
16	8
17	3
26	3
27	15
28	76
29	9
30	79
31	7
39	3
40	9
41	30
42	294
43	529
44	704
45	94
46	57
47	1
53	11
54	2
55	24
56	12
57	22
58	58
59	68
60	36
61	1
64	1
67	5
68	170
69	130
70	96
71	93
72	70
73	12
74	11
80	1
81	1
82	3
83	2
84	42
85	614
86	999
87	151
88	11
96	7
97	14
98	3
99	5
100	9
110	2
111	6
112	67
113	280
114	32
115	1
124	1
125	1
126	2
127	2
128	2
129	502
130	68
131	3
