Mass Spectrum: 1-(6-Methyl-2-pyridyl)propan-2-one
Formula: C9H11NO
CAS: 65702-08-1
Molecular weight: 149
m/z	intensity
37	5
38	20
39	101
40	18
41	18
42	21
43	303
44	8
50	13
51	26
52	20
53	28
54	5
61	3
62	8
63	26
64	18
65	43
66	63
67	13
75	3
76	3
77	61
78	20
79	65
80	13
89	3
90	3
91	8
92	31
93	5
104	10
105	6
106	153
107	999
108	83
109	3
120	3
121	6
134	43
135	5
149	105
150	13
