Mass Spectrum: 1H-2-Benzoxacyclododecin-1-one,3,4,5,6,7,8,9,10-octahydro-12-(benzyloxy)-14-methoxy-3-methyl
Formula: C24H30O4
CAS: 65716-52-1
Molecular weight: 382
m/z	intensity
27	7
28	2
29	13
38	0
39	15
40	1
41	37
42	3
43	13
44	1
45	4
50	1
51	6
52	2
53	5
54	1
55	29
56	2
57	4
58	0
59	2
62	0
63	6
64	4
65	42
66	4
67	9
68	1
69	21
70	1
71	1
72	0
73	0
74	0
75	1
76	1
77	13
78	6
79	7
80	1
81	6
82	0
83	2
84	0
85	1
89	8
90	6
91	999
92	107
93	6
94	2
95	5
96	0
97	2
98	0
99	0
100	0
101	0
102	1
103	4
104	2
105	9
106	3
107	5
108	2
109	4
110	0
111	2
115	4
116	1
117	5
118	2
119	4
120	5
121	7
122	2
123	3
124	1
125	2
126	0
127	1
128	2
129	3
130	1
131	7
132	2
133	6
134	3
135	13
136	2
137	22
138	9
139	2
140	0
141	1
142	0
143	1
144	1
145	5
146	1
147	4
148	3
149	6
150	3
151	6
152	2
153	4
154	1
155	1
156	0
157	1
158	0
159	2
160	2
161	4
162	2
163	15
164	7
165	6
166	1
167	2
168	1
169	2
170	0
171	0
172	0
173	1
174	1
175	4
176	2
177	19
178	4
179	4
180	1
181	9
182	15
183	3
184	0
185	1
186	0
187	1
188	0
189	3
190	2
191	8
192	2
193	6
194	3
195	4
196	1
197	2
198	1
199	2
200	1
201	1
202	0
203	2
204	1
205	3
206	1
207	2
208	0
209	1
210	0
211	2
212	2
213	8
214	2
215	2
216	1
217	2
218	1
219	3
220	1
221	4
222	1
223	2
224	1
225	6
226	3
227	17
228	46
229	10
230	1
231	2
232	1
233	1
234	0
235	1
236	0
237	2
238	0
239	4
240	10
241	6
242	2
243	2
244	2
245	3
246	1
247	9
248	1
249	1
250	0
251	0
252	0
253	3
254	10
255	5
256	3
257	30
258	7
259	2
260	0
261	0
262	0
263	4
264	0
265	1
266	1
267	25
268	14
269	4
270	2
271	3
272	54
273	17
274	3
275	1
276	0
277	1
278	0
279	0
280	0
281	8
282	18
283	10
284	2
285	4
286	3
287	0
290	0
291	25
292	5
293	1
294	0
295	5
296	5
297	2
298	0
299	0
300	0
301	0
302	0
305	0
306	0
307	1
308	0
309	3
310	1
311	0
312	0
313	0
314	0
320	0
321	1
322	0
323	2
324	0
325	1
326	0
327	0
328	0
329	0
330	0
335	0
336	0
337	5
338	14
339	5
340	1
341	1
342	0
347	0
348	0
349	0
350	0
351	3
352	1
353	1
354	5
355	1
363	0
364	2
365	4
366	1
367	13
368	3
382	349
383	90
384	17
