Mass Spectrum: 6-[[[3,4-Dichlorophenyl]methylamino]methyl]-2,4-pteridinediamine, 8-oxide
Formula: C14H13Cl2N7O
CAS: 65711-55-9
Molecular weight: 365
m/z	intensity
41	128
42	398
43	999
44	193
45	66
47	10
49	40
50	34
51	60
52	91
53	113
54	58
55	45
56	70
57	43
58	25
59	8
60	15
61	18
62	29
63	59
64	44
65	49
66	129
67	132
68	111
69	84
70	23
71	16
72	19
73	72
74	27
75	33
76	15
77	56
78	42
79	81
80	57
81	43
82	16
83	13
84	18
85	19
86	15
87	16
88	17
89	21
90	16
91	31
92	33
93	38
94	51
95	22
96	21
97	25
98	7
99	28
100	5
101	5
102	10
103	7
104	25
105	30
106	183
107	126
108	107
109	40
110	26
111	34
112	11
113	15
114	6
115	8
116	3
117	9
118	20
119	14
120	16
121	63
122	75
123	38
124	32
125	20
126	19
127	7
128	4
129	5
131	17
132	8
133	220
134	85
135	346
136	36
137	4
138	29
139	38
140	27
141	26
142	9
143	6
145	41
146	26
147	44
148	75
149	45
150	27
152	22
153	5
154	3
155	3
156	5
158	14
159	15
160	58
161	36
162	4
163	35
164	97
165	90
166	11
172	35
173	26
174	116
175	455
176	387
177	757
178	202
179	25
180	3
185	3
186	3
187	5
188	49
189	21
190	64
191	69
192	351
193	33
194	3
195	2
201	2
202	5
203	5
204	4
205	5
206	46
207	10
208	283
209	52
210	3
211	3
212	8
213	9
214	7
215	7
216	3
219	3
225	3
227	3
234	3
237	5
238	2
239	4
240	3
241	4
242	3
243	5
244	3
245	4
247	4
248	7
249	3
250	33
251	10
252	11
254	4
255	3
256	9
257	10
258	5
259	3
260	5
261	2
262	3
263	3
264	3
265	7
266	6
267	4
268	3
269	3
270	5
274	2
275	3
276	4
277	7
278	7
279	5
283	2
284	3
286	3
287	6
288	2
290	2
291	2
292	3
294	3
295	3
296	2
298	3
301	4
304	3
312	4
315	2
323	2
332	8
333	8
334	6
335	8
337	3
347	3
348	7
349	89
350	25
351	31
352	9
353	20
365	28
366	10
367	17
368	5
369	2
