Mass Spectrum: Salicylic acid, 4-benzyloxy-6-(8-hydroxyoctyl)-, methyl ester
Formula: C23H30O5
CAS: 65716-49-6
Molecular weight: 386
m/z	intensity
25	2
27	22
29	58
30	3
31	60
33	0
37	0
38	2
39	30
40	5
41	95
42	16
43	72
44	11
45	25
46	12
47	0
48	1
49	0
50	5
51	15
52	5
53	16
54	9
55	85
56	15
57	61
58	9
59	13
60	25
61	12
62	2
63	8
64	6
65	53
66	7
67	27
68	12
69	50
70	12
71	34
72	4
73	23
74	8
75	4
76	3
77	29
78	10
79	38
80	7
81	42
82	14
83	30
84	13
85	55
86	5
87	11
88	2
89	12
90	10
91	999
92	120
93	16
94	7
95	29
96	9
97	21
98	14
99	9
100	4
101	7
102	2
103	5
104	4
105	16
106	5
107	29
108	24
109	13
110	6
111	19
112	6
113	7
114	3
115	9
116	3
117	7
118	3
119	6
120	8
121	19
122	9
123	15
124	8
125	6
126	2
127	6
128	4
129	13
130	3
131	9
132	3
133	9
134	6
135	8
136	4
137	10
138	4
139	5
140	3
141	8
142	3
143	34
144	4
145	3
146	2
147	8
148	4
149	22
150	15
151	7
152	4
153	5
154	2
155	5
156	2
157	4
158	1
159	2
160	2
161	6
162	5
163	17
164	9
165	7
166	2
167	4
168	2
169	8
170	2
171	4
172	1
173	20
174	3
175	7
176	4
177	9
178	10
179	4
180	2
181	8
182	34
183	10
184	4
185	4
186	1
187	2
188	1
189	6
190	2
191	6
192	6
193	3
194	1
195	3
196	4
197	4
198	2
199	3
200	1
201	2
202	1
203	3
204	1
205	3
206	2
207	2
208	1
209	2
210	5
211	6
212	23
213	12
214	6
215	2
216	1
217	6
218	1
219	2
220	1
221	2
222	1
223	3
224	2
225	10
226	7
227	4
228	2
229	2
230	6
231	2
232	0
233	1
234	2
235	5
236	3
237	3
238	4
239	6
240	34
241	13
242	3
243	3
244	2
245	10
246	2
247	2
248	11
249	3
250	1
251	4
252	4
253	26
254	16
255	4
256	5
257	13
258	9
259	4
260	1
261	1
262	2
263	45
264	9
265	6
266	2
267	5
268	5
269	2
270	1
271	8
272	143
273	30
274	4
275	1
276	0
277	2
278	1
279	4
280	4
281	3
282	3
283	2
284	3
285	5
286	1
287	0
291	1
292	1
293	3
294	1
295	28
296	5
297	1
298	0
299	1
300	0
301	1
302	0
303	0
304	0
305	0
306	0
307	3
308	2
309	2
310	2
311	1
312	1
313	2
314	1
318	2
319	6
320	2
323	2
325	8
326	4
327	5
328	1
335	1
336	33
337	9
338	1
339	1
340	1
341	0
352	1
354	91
355	33
356	10
357	1
367	0
368	2
369	1
370	0
386	187
387	45
388	8
