Mass Spectrum: Arsine, methylenebis[bis(1-methylethyl)-
Formula: C13H30As2
CAS: 65718-96-9
Molecular weight: 336
m/z	intensity
25	9
27	256
28	36
29	33
30	5
31	1
33	0
37	3
38	6
39	106
40	14
41	390
42	43
43	999
44	92
45	30
51	1
52	1
53	4
54	1
55	25
56	10
57	81
58	3
59	0
63	1
66	1
69	20
70	1
71	2
73	1
75	2
76	1
77	2
79	0
83	4
84	1
85	5
86	1
88	2
89	62
90	37
91	112
92	1
97	1
100	1
101	16
102	6
103	37
104	3
105	72
106	1
107	1
108	0
112	1
113	1
114	1
115	9
116	3
117	94
118	16
119	166
120	7
127	1
129	2
131	44
132	5
133	34
134	5
135	1
150	43
151	24
152	1
153	3
157	1
159	1
160	0
161	14
162	2
163	52
164	14
165	126
166	61
167	419
168	4
173	1
175	4
176	1
177	2
179	1
180	1
181	8
183	1
191	1
193	5
194	1
195	29
196	1
202	1
205	1
207	7
209	635
210	27
211	1
223	1
235	1
237	5
249	1
250	5
251	302
252	28
253	2
255	1
262	1
265	4
267	1
277	3
278	1
291	7
293	680
294	111
295	5
296	1
300	2
308	1
321	2
331	1
336	112
337	20
338	2
