Mass Spectrum: 2,3-Cyclododecenopyridine
Formula: C15H23N
CAS: 6571-43-3
Molecular weight: 217
m/z	intensity
15	1
26	3
27	41
29	49
30	2
38	4
39	101
40	12
41	115
42	22
43	15
50	7
51	36
52	26
53	33
54	12
55	33
56	5
57	1
58	3
62	2
63	23
64	17
65	80
66	20
67	16
68	3
69	4
71	4
74	1
75	2
76	4
77	75
78	53
79	54
80	15
81	3
82	1
89	13
90	16
91	65
92	49
93	73
94	17
95	1
101	1
102	5
103	14
104	52
105	23
106	129
107	999
108	92
109	3
115	13
116	9
117	153
118	315
119	115
120	496
121	177
122	15
127	1
128	6
129	5
130	142
131	75
132	460
133	186
134	423
135	54
136	3
141	1
142	7
143	13
144	51
145	18
146	223
147	82
148	81
149	10
154	1
156	5
157	2
158	15
159	5
160	199
161	42
162	58
163	10
170	1
172	4
174	190
175	29
176	128
177	16
178	1
186	2
188	46
189	9
190	3
202	65
203	10
216	30
217	83
218	14
219	1
