Mass Spectrum: 1,3-Dithiolane-2-acetic acid, 2-methyl-, methyl ester
Formula: C7H12O2S2
CAS: 65726-45-6
Molecular weight: 192
m/z	intensity
27	50
39	80
41	100
43	30
44	60
45	160
46	30
47	50
58	90
59	490
60	60
61	120
67	50
71	40
72	50
73	50
75	50
76	50
99	60
100	230
101	120
105	20
117	20
118	40
119	999
120	70
121	90
132	360
133	310
134	50
135	40
145	10
159	10
161	10
177	110
192	520
193	70
194	60
