Mass Spectrum: Tetraacetyl 2,5-anhydro-D-mannitol
Formula: C14H20O9
CAS: 65729-88-6
Molecular weight: 332
m/z	intensity
69	170
85	90
97	999
98	180
110	930
111	120
115	110
126	50
139	700
157	110
170	60
182	450
183	130
259	90
