Mass Spectrum: Spiro[bicyclo[2.2.1]hept-5-ene-2,1'-cyclopropane]
Formula: C9H12
CAS: 6572-50-5
Molecular weight: 120
m/z	intensity
38	11
39	127
40	35
41	49
50	20
51	59
52	26
53	41
54	14
55	17
57	12
58	15
62	8
63	29
64	7
65	108
66	999
67	72
77	142
78	96
79	227
80	24
89	11
90	6
91	410
92	268
93	28
102	5
103	38
104	11
105	299
106	27
119	31
120	111
121	11
