Mass Spectrum: 3.beta.-Acetoxy-17.alpha.-methyl-d-homoandrostane-17a-one
Formula: C23H36O3
CAS: 65731-78-4
Molecular weight: 360
m/z	intensity
41	248
43	999
44	13
45	11
47	2
49	12
51	8
53	73
55	273
56	25
57	25
58	7
59	2
61	43
62	0
63	0
65	20
67	219
68	78
69	88
70	8
71	13
72	3
73	0
74	1
77	60
79	218
80	32
81	236
83	48
84	18
85	11
86	4
87	1
88	4
91	127
93	183
94	68
95	146
96	18
97	7
98	89
99	8
100	0
101	4
103	5
104	6
105	124
106	63
107	192
108	113
109	68
110	15
111	15
112	2
113	2
115	30
117	22
118	4
119	77
120	42
121	82
122	43
123	40
125	148
126	10
128	2
129	7
131	35
133	79
134	57
135	48
136	13
137	12
138	36
139	14
140	0
141	3
142	0
143	11
145	52
147	125
148	34
149	53
151	28
152	8
153	2
155	1
156	0
157	8
158	1
159	41
160	22
161	43
162	29
163	20
164	12
165	7
166	1
167	0
169	1
171	8
172	5
173	24
174	21
175	29
176	29
177	14
178	14
179	9
180	1
183	1
184	0
185	8
186	5
187	35
188	16
189	12
190	5
191	5
192	10
193	4
194	1
197	3
199	8
200	2
201	36
202	27
203	37
204	14
205	6
206	0
207	2
211	4
212	1
213	27
215	207
216	45
217	29
218	19
219	6
220	1
221	1
225	2
226	2
227	7
228	7
229	25
230	36
231	14
232	5
233	3
234	1
236	0
239	1
240	1
241	4
242	9
243	17
244	9
245	10
246	93
247	21
248	3
253	2
254	1
255	2
256	0
257	59
258	27
259	10
260	4
261	4
262	5
263	1
267	23
268	4
269	2
271	5
272	19
273	8
274	7
275	18
276	6
277	1
278	0
281	1
282	15
283	9
285	103
286	22
287	3
288	8
289	2
290	3
291	1
298	0
299	7
300	242
301	80
302	26
303	13
304	4
305	1
313	4
314	8
315	2
316	0
317	5
318	3
319	0
327	9
328	2
329	2
331	2
332	2
341	0
342	26
343	8
345	30
346	6
347	1
358	0
359	4
360	210
361	58
362	10
363	1
