Mass Spectrum: Cycloheptanone, 2-(2-methyl-2-propenyl)-
Formula: C11H18O
CAS: 65737-49-7
Molecular weight: 166
m/z	intensity
26	7
27	110
28	7
29	144
30	4
31	2
37	2
38	5
39	130
40	9
41	523
42	54
43	102
44	9
45	6
50	4
51	8
52	9
53	46
54	61
55	999
56	92
57	15
58	7
62	2
63	2
65	10
66	14
67	164
68	16
69	98
70	12
71	29
77	5
78	4
80	0
81	92
82	83
83	158
84	22
85	7
90	2
91	7
92	9
93	206
95	27
97	22
98	45
99	6
105	31
106	41
108	204
109	47
110	27
111	368
112	35
119	12
120	5
123	28
124	31
125	6
133	26
137	13
138	7
148	32
151	47
152	7
166	68
167	11
