Mass Spectrum: 2H-Pyran-3(4H)-one, 6-ethoxydihydro-2-methyl-
Formula: C8H14O3
CAS: 65732-81-2
Molecular weight: 158
m/z	intensity
26	121
27	649
28	302
29	979
30	96
31	110
37	8
38	36
39	228
40	60
41	259
42	287
43	552
44	239
45	252
46	9
47	20
50	28
51	41
52	28
53	36
54	16
55	204
56	205
57	445
58	999
59	43
60	8
61	6
62	13
63	27
64	8
65	36
66	9
67	134
68	19
69	33
70	21
71	177
72	615
73	62
74	18
75	16
76	6
77	21
78	48
79	29
80	10
81	7
82	13
83	40
84	22
85	221
86	710
87	53
88	8
89	14
90	10
91	98
92	34
95	102
96	13
97	16
98	14
100	6
101	14
102	13
105	29
106	28
111	16
112	10
113	411
114	248
115	45
116	21
117	45
118	41
119	13
120	13
128	6
129	6
130	6
131	4
132	20
133	7
141	7
145	7
157	6
158	230
159	28
160	8
