Mass Spectrum: 1-Methyl-5,6-dinitro-1H-indazole
Formula: C8H6N4O4
CAS: 65749-99-7
Molecular weight: 222
m/z	intensity
33	0
34	1
37	19
38	30
39	39
40	59
41	81
42	999
43	60
44	13
45	1
46	28
48	0
49	6
50	76
51	59
52	67
53	21
54	7
55	6
56	1
57	0
58	0
60	1
61	33
62	53
63	52
64	79
65	21
66	100
67	105
68	6
70	1
73	6
74	34
75	75
76	92
77	42
78	30
79	25
80	18
81	2
82	1
85	6
86	26
87	21
88	77
89	30
90	32
91	169
92	48
93	7
99	8
100	8
101	9
102	31
103	21
104	10
105	11
106	20
107	2
113	3
115	6
117	117
118	327
119	32
120	0
121	0
128	3
129	113
130	437
131	52
132	4
133	5
134	81
135	6
144	0
146	53
147	13
148	128
149	10
150	0
171	0
175	1
176	3
177	0
190	0
192	156
193	14
194	0
206	8
219	4
220	17
222	978
223	92
224	9
