Mass Spectrum: 6,10,14,18,22-Tetracosapentaen-2-ol, 3-bromo-2,6,10,15,19,23-hexamethyl-, (all-E)-
Formula: C30H51BrO
CAS: 65746-05-6
Molecular weight: 506
m/z	intensity
26	0
27	24
29	38
30	1
31	18
36	1
37	0
38	1
39	24
40	5
41	311
42	15
43	212
44	4
45	7
46	0
50	1
51	3
52	2
53	49
54	6
55	134
56	7
57	38
58	7
59	101
60	3
61	0
63	1
65	12
66	4
67	135
68	177
69	799
70	46
71	115
72	12
73	4
74	0
77	26
78	6
79	82
80	40
81	999
82	101
83	49
84	16
85	19
86	2
87	1
89	0
91	42
92	22
93	203
94	75
95	188
96	22
97	27
98	4
99	8
100	1
101	2
102	1
103	2
104	0
105	45
106	13
107	124
108	33
109	135
110	18
111	20
112	2
113	3
114	1
115	2
116	1
117	4
118	1
119	53
120	17
121	117
122	34
123	104
124	15
125	19
126	3
127	21
128	3
129	2
130	0
131	7
132	5
133	35
134	26
135	163
136	135
137	102
138	11
139	5
140	1
141	2
142	1
143	5
144	1
145	11
146	4
147	48
148	18
149	90
150	19
151	10
152	3
153	21
154	3
155	2
156	0
157	2
158	0
159	12
160	4
161	30
162	10
163	24
164	4
165	4
166	1
167	1
169	1
171	2
172	0
173	8
174	2
175	27
176	8
177	20
178	6
179	4
180	0
181	1
184	0
185	2
186	0
187	7
188	3
189	27
190	10
191	32
192	22
193	6
194	0
195	0
196	0
197	0
199	1
200	0
201	8
202	2
203	28
204	8
205	13
206	2
207	6
208	1
209	1
210	0
211	1
213	2
214	0
215	9
216	3
217	35
218	9
219	3
220	1
221	1
222	0
223	0
225	0
227	3
228	0
229	6
230	3
231	17
232	3
233	3
234	1
235	3
236	0
237	0
241	1
243	3
244	0
245	1
246	1
247	1
248	1
249	0
255	1
256	0
257	4
258	2
259	3
260	3
261	1
262	0
267	0
269	1
270	0
271	5
272	2
273	8
274	2
275	1
277	0
281	0
283	1
284	0
285	2
286	2
287	2
288	1
289	1
290	0
295	0
297	1
298	1
299	5
300	1
301	1
302	0
303	0
309	0
311	0
313	1
314	1
315	1
316	1
325	1
326	0
327	4
328	1
329	0
339	2
340	1
341	1
342	1
343	0
351	0
353	0
354	0
355	0
356	0
357	1
358	0
365	1
366	0
367	0
368	0
369	1
370	0
371	0
372	0
379	0
381	0
382	0
383	1
384	1
393	0
395	2
396	0
397	1
398	0
407	0
408	1
409	4
410	1
411	0
419	0
421	1
422	1
423	1
424	2
425	1
426	3
427	1
437	5
438	1
439	5
440	1
463	2
464	1
465	2
466	0
491	0
492	0
493	0
506	11
507	3
508	11
509	3
510	0
