Mass Spectrum: Benzonitrile, 2-chloro-6-nitro-
Formula: C7H3ClN2O2
CAS: 6575-07-1
Molecular weight: 182
m/z	intensity
30	999
31	4
35	7
36	28
37	68
38	60
39	36
40	13
41	6
42	2
43	4
44	2
45	1
46	26
47	15
48	11
49	69
50	197
51	68
52	20
53	4
54	2
55	4
56	1
57	2
58	0
59	1
60	21
61	82
62	75
63	68
64	36
65	5
66	1
67	1
68	1
69	1
70	1
71	4
72	22
73	96
74	150
75	333
76	108
77	21
78	2
79	1
80	1
81	1
82	0
83	2
84	28
85	65
86	36
87	40
88	38
89	27
90	19
91	5
92	1
93	1
94	0
95	1
96	3
97	20
98	38
99	111
100	705
101	107
102	10
103	3
104	2
105	3
106	1
107	1
108	4
109	80
110	75
111	33
112	27
113	4
114	1
115	5
116	5
117	20
118	2
119	0
120	0
121	1
122	1
123	2
124	330
125	42
126	109
127	16
128	4
129	1
130	1
131	0
132	0
133	2
134	1
135	8
136	740
137	70
138	265
139	25
140	10
141	2
142	0
143	0
144	0
145	1
146	4
147	3
148	2
149	1
150	3
151	2
152	156
153	15
154	51
155	5
156	0
157	0
158	0
160	0
161	5
162	2
163	4
164	4
165	2
166	33
167	3
168	12
169	1
170	0
171	8
172	0
173	5
174	0
175	1
176	0
177	0
178	1
179	0
180	2
181	0
182	864
183	70
184	271
185	25
186	2
