Mass Spectrum: 1,4-Oxathiin-3-carboxylic acid, 5,6-dihydro-2-methyl-
Formula: C6H8O3S
CAS: 6577-69-1
Molecular weight: 160
m/z	intensity
14	18
15	23
17	10
18	51
26	12
27	28
29	12
39	15
40	15
42	20
43	999
44	33
45	77
46	18
58	18
59	20
69	13
71	18
72	24
76	44
87	22
88	13
90	33
104	63
118	18
132	19
142	16
143	10
160	375
161	29
162	20
