Mass Spectrum: 2-Methyl-3-ethoxycarbonyl-5,6-dihydro-1,4-oxathiine
Formula: C8H12O3S
CAS: 6577-68-0
Molecular weight: 188
m/z	intensity
43	999
45	88
58	29
59	30
64	30
71	30
72	50
74	49
87	160
90	111
104	30
114	39
115	30
118	418
142	200
143	280
160	110
188	651
