Mass Spectrum: Benzoic acid, 2-hydroximinoacetylamino-
Formula: C9H8N2O4
CAS: 6579-46-0
Molecular weight: 208
m/z	intensity
36	4
37	51
38	118
39	305
40	27
42	4
43	27
44	353
45	77
46	17
49	6
50	80
51	84
52	103
53	62
54	24
59	9
61	16
62	67
63	160
64	151
65	184
66	27
72	102
73	17
74	33
75	27
76	31
77	37
79	6
80	10
87	0
88	9
89	20
90	330
91	101
92	281
93	64
94	4
102	7
103	3
104	9
105	1
106	1
108	1
114	0
116	1
117	14
118	67
119	999
120	145
121	7
128	0
129	6
130	3
131	6
132	332
133	60
134	7
136	10
137	308
138	28
139	2
143	0
144	5
145	30
146	700
147	201
148	21
158	0
159	5
160	22
161	2
162	5
163	182
164	41
165	3
172	3
173	12
174	1
177	1
178	0
179	0
184	0
188	0
189	6
190	125
191	68
192	9
193	0
194	0
204	0
206	2
207	14
208	524
209	68
210	8
211	0
