Mass Spectrum: Phenyl 1,1,1,2,3,3,3-heptafluoroisopropyl sulfide
Formula: C9H5F7S
CAS: 65799-63-5
Molecular weight: 278
m/z	intensity
51	140
65	221
69	228
77	182
81	20
82	36
83	20
100	38
108	87
109	999
110	91
111	56
127	13
170	33
189	28
208	9
209	121
210	11
211	5
239	50
240	5
277	17
278	465
279	49
280	23
