Mass Spectrum: Tyrosine, .alpha.-methyl-
Formula: C10H13NO3
CAS: 658-48-0
Molecular weight: 195
m/z	intensity
14	1
15	24
16	1
17	1
18	3
26	5
27	33
28	32
29	8
30	9
31	1
36	2
37	2
38	8
39	49
40	10
41	23
42	567
43	61
44	18
45	8
46	1
49	1
50	18
51	49
52	28
53	34
54	6
55	21
56	26
57	42
58	4
59	2
60	8
61	3
62	7
63	19
64	7
65	19
66	8
67	8
68	3
69	2
70	9
71	9
73	1
74	5
75	20
76	4
77	119
78	39
79	31
80	11
81	9
82	1
86	1
87	4
88	999
89	60
90	17
91	13
92	3
93	3
94	9
95	4
101	1
102	2
103	9
104	5
105	36
106	15
107	527
108	283
109	22
110	2
114	1
115	8
116	3
117	4
118	5
119	6
120	9
121	6
122	2
123	2
130	2
131	10
132	9
133	36
134	21
135	19
136	4
138	1
146	4
147	3
148	6
149	27
150	123
151	13
152	1
159	1
160	2
161	1
176	9
177	8
178	2
195	34
196	5
