Mass Spectrum: Ethanone, 1-cyclopropyl-2-(4-pyridinyl)-
Formula: C10H11NO
CAS: 6580-95-6
Molecular weight: 161
m/z	intensity
37	13
38	15
39	379
40	34
41	450
42	15
43	4
49	4
50	17
51	38
52	22
53	9
54	7
55	12
61	7
62	14
63	63
64	23
65	13
66	17
67	12
68	5
69	875
70	39
77	10
78	8
79	5
91	11
92	133
93	999
94	71
106	15
117	6
126	6
132	15
133	6
161	28
162	9
