Mass Spectrum: 2-Phenylpropyl isobutyrate
Formula: C13H18O2
CAS: 65813-53-8
Molecular weight: 206
m/z	intensity
15	3
26	3
27	46
28	11
29	2
31	2
32	1
37	1
38	3
39	36
40	6
41	84
42	13
43	513
44	14
45	1
50	9
51	32
52	9
53	6
55	3
56	1
57	3
58	2
59	1
62	3
63	10
64	2
65	15
66	1
69	2
70	9
71	473
72	22
73	2
74	3
75	3
76	5
77	65
78	40
79	42
80	3
87	2
89	7
90	3
91	130
92	12
93	1
101	4
102	7
103	51
104	44
105	278
106	30
107	2
115	13
116	5
117	70
118	999
119	114
120	7
121	1
