Mass Spectrum: 1-(2-Adamantylidene)semicarbazide
Formula: C11H17N3O
CAS: 65814-27-9
Molecular weight: 207
m/z	intensity
33	31
34	7
36	9
39	610
41	732
43	213
44	999
46	2
48	1
50	32
51	169
53	340
54	127
55	149
56	78
57	31
58	14
59	9
61	415
63	45
65	203
67	279
69	303
70	30
71	15
72	13
73	7
75	9
77	390
79	617
81	693
82	48
83	31
84	9
85	7
86	3
87	4
89	17
91	397
92	121
93	157
94	61
95	57
96	18
97	14
98	13
99	5
100	2
101	2
103	24
104	43
105	174
106	100
107	59
108	29
109	37
110	9
112	8
113	5
115	14
117	48
118	41
119	73
120	47
121	71
122	52
123	41
124	5
125	2
126	2
127	3
128	5
129	15
130	34
131	24
132	115
133	45
134	86
135	28
136	17
137	12
138	3
139	1
141	1
143	1
144	4
146	89
147	91
148	50
149	42
150	12
152	6
153	1
159	1
161	7
164	724
165	67
166	9
167	1
171	1
175	1
176	1
177	1
178	2
179	4
180	1
188	1
190	80
191	19
192	3
203	1
204	2
205	5
207	324
208	35
209	3
