Mass Spectrum: Bicyclo[5.2.0]non-1-ene
Formula: C9H14
CAS: 65811-17-8
Molecular weight: 122
m/z	intensity
53	320
54	200
55	190
65	190
66	280
67	570
68	430
77	410
78	210
79	999
80	680
81	580
91	390
92	130
93	940
94	660
107	720
122	540
