Mass Spectrum: 3-Methyloctacosane
Formula: C29H60
CAS: 65820-58-8
Molecular weight: 408
m/z	intensity
27	6
29	29
39	12
41	160
42	34
43	377
44	12
53	7
54	19
55	232
56	372
57	999
58	42
65	2
66	3
67	34
68	31
69	214
70	138
71	706
72	39
81	17
82	35
83	168
84	56
85	470
86	31
95	10
97	143
98	35
99	205
100	15
109	8
110	12
111	91
112	29
113	163
114	16
123	5
124	12
125	50
126	17
127	115
128	11
137	3
138	8
139	21
140	9
141	91
142	10
152	5
153	12
154	8
155	70
156	8
166	4
167	10
168	5
169	57
170	7
180	4
181	7
182	5
183	48
184	7
194	4
195	7
196	5
197	42
198	6
209	4
210	3
211	39
212	5
222	3
223	4
224	3
225	31
226	6
236	3
237	3
239	27
240	5
250	3
253	21
254	5
264	2
267	17
268	5
278	2
281	16
292	2
293	2
295	15
296	3
309	13
310	4
321	2
322	3
323	8
324	2
337	7
338	2
350	20
351	37
352	10
353	1
378	93
379	298
380	82
381	11
382	1
393	12
394	4
408	1
