Mass Spectrum: Benzene, (1-methylheptadecyl)-
Formula: C24H42
CAS: 6583-67-1
Molecular weight: 330
m/z	intensity
27	16
28	15
29	34
30	0
38	0
39	7
40	1
41	51
42	10
43	70
44	2
50	0
51	2
52	0
53	3
54	2
55	31
56	9
57	29
58	1
63	0
64	0
65	2
66	0
67	3
68	1
69	12
70	4
71	9
72	0
74	0
75	0
76	1
77	26
78	12
79	26
80	2
81	2
82	1
83	9
84	2
85	6
86	0
89	1
90	1
91	109
92	10
93	1
95	1
96	0
97	4
98	1
99	0
100	0
101	1
102	2
103	17
104	49
105	999
106	136
107	8
108	0
109	0
110	0
111	1
112	0
113	0
115	5
116	2
117	13
118	13
119	11
120	3
121	0
125	0
127	0
128	1
129	1
130	1
131	6
132	1
133	2
134	0
141	0
143	0
144	0
145	1
146	0
147	4
148	0
155	0
161	1
169	0
175	0
189	0
190	0
259	0
273	0
287	0
288	0
302	0
314	1
315	3
316	1
328	0
330	65
331	17
332	2
