Mass Spectrum: 4-(Hydroxymethyl)-1-phenyl-2-azetidinone
Formula: C10H11NO2
CAS: 65837-49-2
Molecular weight: 177
m/z	intensity
39	80
51	240
64	80
77	610
91	220
104	999
106	200
119	450
135	180
177	410
