Mass Spectrum: Normorphine, N,O,O'-triacetyl-
Formula: C22H23NO6
CAS: 65846-34-6
Molecular weight: 397
m/z	intensity
15	8
27	2
28	5
29	2
30	30
31	1
38	1
39	6
40	2
41	9
42	21
43	482
44	79
45	14
46	1
50	2
51	9
52	3
53	13
54	8
55	23
56	13
57	3
58	1
59	12
60	6
61	1
62	1
63	6
64	2
65	15
66	2
67	7
68	9
69	5
70	4
72	260
73	12
74	2
75	4
76	5
77	33
78	13
79	11
80	31
81	57
82	14
83	3
84	1
86	248
87	999
88	49
89	10
90	4
91	29
92	7
93	7
94	7
95	3
96	5
97	2
98	4
99	1
101	4
102	9
103	18
104	19
105	24
106	8
107	8
108	7
109	3
110	16
111	2
112	1
113	3
114	6
115	65
116	15
117	20
118	9
119	4
120	7
121	8
122	4
123	4
124	1
125	1
126	5
127	36
128	37
129	20
130	15
131	25
132	25
133	11
134	6
135	3
136	1
137	1
138	2
139	21
140	8
141	32
142	9
143	8
144	17
145	14
146	7
147	14
148	11
149	4
150	5
151	17
152	71
153	62
154	22
155	15
156	7
157	14
158	5
159	7
160	20
161	20
162	20
163	7
164	6
165	39
166	14
167	20
168	18
169	24
170	14
171	28
172	14
173	21
174	20
175	15
176	7
177	8
178	13
179	13
180	20
181	124
182	33
183	13
184	34
185	19
186	18
187	8
188	14
189	7
190	5
191	8
192	4
193	11
194	9
195	14
196	13
197	33
198	23
199	16
200	14
201	11
202	6
204	3
205	6
206	13
207	16
208	61
209	602
210	264
211	43
212	11
213	6
214	5
215	3
216	2
217	2
218	7
219	8
220	4
221	53
222	11
223	24
224	27
225	23
226	51
227	41
228	21
229	3
230	3
231	1
232	1
233	2
234	10
235	20
236	96
237	27
238	8
239	3
240	7
241	11
242	5
243	3
248	1
249	1
250	11
251	34
252	66
253	34
254	36
255	5
256	5
267	5
268	5
269	8
270	17
271	3
272	1
276	1
277	1
280	1
283	1
284	1
294	21
295	33
296	13
297	2
298	1
310	1
311	1
312	10
313	55
314	12
315	1
320	1
336	1
337	2
338	3
339	1
355	145
356	34
357	4
358	1
368	1
397	116
398	27
399	4
