Mass Spectrum: 4,4 (1,3)-Trimethylene-2-phenyl-oxazin-6-one
Formula: C13H13NO2
CAS: 65855-09-6
Molecular weight: 215
m/z	intensity
39	39
41	79
44	39
50	49
51	110
54	60
55	70
56	39
67	80
68	50
76	78
77	440
78	40
79	29
80	50
81	109
94	39
96	70
100	79
103	169
104	59
105	999
122	129
159	40
173	39
186	30
187	59
200	69
201	29
215	159
