Mass Spectrum: 4-n-Pentylthiane
Formula: C10H20S
CAS: 65865-32-9
Molecular weight: 172
m/z	intensity
41	490
42	50
43	160
44	10
45	160
46	70
47	190
53	80
54	90
55	620
56	110
57	90
59	120
60	140
61	30
67	390
68	200
69	460
70	110
81	280
82	250
83	150
87	210
88	40
89	20
95	250
96	60
97	40
101	400
102	110
103	20
109	190
110	60
111	50
112	40
115	999
116	100
117	60
129	150
130	20
131	10
143	130
144	20
145	10
157	230
158	20
159	10
171	60
172	580
173	71
174	29
175	3
