Mass Spectrum: 4-n-Pentylthiane, S,S-dioxide
Formula: C10H20O2S
CAS: 65865-33-0
Molecular weight: 204
m/z	intensity
53	100
54	120
55	750
56	280
57	250
67	280
68	100
69	999
70	280
71	60
81	300
82	80
83	530
84	170
85	30
95	220
96	30
97	220
98	30
106	20
109	110
110	40
111	150
112	70
117	10
123	20
133	40
134	80
138	120
139	30
147	130
148	20
161	140
162	20
175	20
187	60
204	120
205	14
206	6
207	1
