Mass Spectrum: 2-Heptanone, 6-(3-acetyl-2-methyl-1-cyclopropen-1-yl)-6-methyl-
Formula: C14H22O2
CAS: 65868-86-2
Molecular weight: 222
m/z	intensity
27	55
28	2
29	60
31	6
38	3
39	74
40	16
41	192
42	19
43	999
44	31
45	19
50	7
51	27
52	16
53	83
54	12
55	121
56	20
57	35
58	17
59	13
60	5
63	8
64	4
65	39
66	14
67	97
68	15
69	149
70	20
71	107
72	10
73	4
74	3
75	4
76	3
77	99
78	21
79	143
80	19
81	74
82	27
83	43
84	11
85	57
86	6
87	5
88	3
91	109
92	16
93	273
94	40
95	112
96	29
97	21
98	6
99	10
100	3
101	3
103	12
104	6
105	169
106	44
107	72
108	18
109	161
110	28
111	50
112	37
113	18
114	8
115	8
116	4
117	8
118	4
119	67
120	14
121	366
122	53
123	49
124	10
125	16
126	6
127	25
128	17
129	7
130	4
131	14
132	4
133	21
134	7
135	34
136	19
137	366
138	20
140	5
141	3
142	3
143	3
145	10
146	8
147	19
148	11
149	60
150	11
151	27
152	9
153	27
154	6
155	4
156	3
157	2
159	5
161	18
162	5
163	14
164	11
165	19
166	6
167	5
168	2
169	3
171	4
175	5
177	9
178	5
179	777
180	129
181	47
182	7
189	16
190	4
191	4
192	0
193	10
194	4
204	10
205	8
206	3
207	32
208	9
209	2
220	3
221	3
222	9
223	3
