Mass Spectrum: 1,5-Cyclooctadiene, 1,2-dimethyl-
Formula: C10H16
CAS: 6588-51-8
Molecular weight: 136
m/z	intensity
25	0
26	5
27	103
28	33
29	53
30	1
31	0
34	0
37	2
38	7
39	156
40	17
41	177
42	18
43	11
44	0
45	0
46	0
49	0
50	14
51	42
52	22
53	98
54	67
55	62
56	5
57	1
58	1
59	0
60	0
61	1
62	4
63	14
64	4
65	41
66	22
67	789
68	60
69	9
70	0
73	0
74	2
75	2
76	2
77	79
78	23
79	152
80	101
81	265
82	999
83	63
84	2
86	0
87	0
89	2
90	1
91	64
92	21
93	83
94	67
95	18
96	1
97	0
98	0
101	0
102	1
103	5
104	2
105	18
106	7
107	69
108	13
109	1
115	4
116	1
117	2
118	0
119	3
120	0
121	23
122	2
127	0
128	0
134	0
135	0
136	14
137	1
