Mass Spectrum: 2-Octen-4-ol, 2-methyl-
Formula: C9H18O
CAS: 65885-49-6
Molecular weight: 142
m/z	intensity
26	4
27	72
28	7
29	111
30	2
31	13
37	1
38	5
39	81
40	12
41	204
42	14
43	70
44	7
45	8
49	1
50	6
51	15
52	6
53	37
54	7
55	76
56	14
57	61
58	25
59	8
60	0
61	1
62	1
63	4
64	0
65	19
66	6
67	101
68	50
69	39
70	7
71	50
72	5
73	0
74	1
75	2
76	2
77	14
78	3
79	19
80	4
81	44
82	21
83	33
84	16
85	999
86	60
87	6
88	0
89	0
90	1
91	5
92	1
93	5
94	2
95	70
96	6
97	2
98	1
99	3
100	49
101	4
102	3
103	1
104	1
105	1
107	1
108	1
109	12
110	1
111	1
113	2
119	1
121	0
122	0
123	1
124	33
125	5
126	0
127	102
128	10
129	1
130	2
131	0
139	0
140	0
141	2
142	37
143	4
144	0
