Mass Spectrum: Acetamide, N-2-propynyl-
Formula: C5H7NO
CAS: 65881-41-6
Molecular weight: 97
m/z	intensity
14	6
15	28
16	1
24	1
25	6
26	19
27	29
28	120
29	35
30	28
31	2
36	3
37	30
38	61
39	299
40	21
41	22
42	93
43	598
44	21
45	2
50	8
51	36
52	110
53	28
54	480
55	999
56	80
57	3
58	2
66	1
67	2
68	55
69	45
70	6
79	2
80	4
82	59
83	3
96	21
97	113
98	8
