Mass Spectrum: 1-Pyrrolidinecarboxamide, 2-(hydroxymethyl)-N-phenyl-, (-)-
Formula: C12H16N2O2
CAS: 65881-43-8
Molecular weight: 220
m/z	intensity
25	1
26	6
27	35
28	125
29	37
30	34
31	24
36	1
37	16
38	64
39	14
41	106
42	31
43	95
44	14
45	3
46	1
49	3
50	19
51	37
52	15
53	10
54	13
55	62
56	23
57	42
58	4
59	1
60	3
61	7
62	11
63	43
64	110
65	58
66	24
67	41
68	64
69	24
70	999
71	80
72	6
73	5
74	10
75	5
76	8
77	61
78	8
79	2
80	5
81	4
82	27
83	21
84	13
85	40
86	4
87	8
88	3
89	1
90	13
91	210
92	48
93	231
94	21
95	7
96	2
97	5
98	10
99	3
100	26
101	7
102	3
103	1
104	4
105	3
106	3
107	1
108	1
109	2
110	4
111	7
112	1
113	3
114	1
115	1
116	0
117	2
118	3
119	540
120	58
121	5
122	1
123	1
124	0
125	1
126	1
127	3
128	33
129	4
130	1
131	1
132	1
133	1
134	1
135	3
136	1
137	1
138	0
139	1
140	0
141	1
142	0
143	1
144	1
145	2
146	3
147	4
148	1
149	35
150	4
151	0
152	0
153	0
155	1
156	0
157	0
158	1
159	1
160	1
161	1
164	0
165	0
166	0
167	1
168	1
169	0
170	0
171	0
172	0
173	1
174	0
175	0
176	0
177	0
178	0
179	0
180	0
181	0
182	0
183	0
184	0
185	1
186	1
187	0
188	3
189	414
190	83
191	8
192	1
193	0
194	0
195	0
196	0
197	0
198	0
199	0
200	0
201	2
202	9
203	2
204	0
205	2
206	0
207	0
208	0
209	0
210	0
211	0
212	0
213	0
218	1
219	5
220	181
221	37
222	3
223	2
