Mass Spectrum: Benzenemethanol, .alpha.-[(methylamino)methyl]-
Formula: C9H13NO
CAS: 6589-55-5
Molecular weight: 151
m/z	intensity
15	5
17	1
18	3
27	6
28	5
29	1
30	9
31	1
38	1
39	8
40	1
41	3
42	29
43	14
44	999
45	32
50	7
51	20
52	5
53	3
55	1
56	1
57	5
58	1
62	1
63	5
64	1
65	7
74	3
75	2
76	2
77	47
78	12
79	30
80	2
89	4
90	2
91	18
92	4
102	1
103	6
104	8
105	15
106	6
107	9
108	1
115	1
117	8
118	2
119	2
120	1
130	2
131	1
132	17
133	5
134	2
151	2
152	1
