Mass Spectrum: 1,13-Dioxacyclotetracosane-2,14-dione
Formula: C22H40O4
CAS: 659-77-8
Molecular weight: 368
m/z	intensity
27	36
29	132
31	8
39	41
41	509
42	160
43	302
45	21
53	31
54	100
55	999
56	177
57	198
58	29
59	31
60	63
61	25
65	3
66	21
67	256
68	181
69	682
70	121
71	140
72	14
73	106
74	13
77	3
78	7
79	70
80	72
81	302
82	271
83	456
84	279
85	106
86	12
87	44
91	12
92	12
93	79
94	96
95	213
96	187
97	262
98	630
99	89
100	34
101	50
102	4
103	6
105	20
106	18
107	63
108	74
109	109
110	94
111	197
112	152
113	56
114	30
115	42
116	22
117	7
118	7
119	42
120	26
121	74
122	147
123	150
124	269
125	196
126	46
127	37
128	9
129	41
130	12
131	10
132	18
133	26
134	19
135	46
136	122
137	132
138	154
139	66
140	38
141	30
142	10
143	18
144	4
145	12
146	20
147	73
148	133
149	260
150	127
151	61
152	19
153	18
154	21
155	25
156	14
157	19
159	7
161	7
162	25
163	16
164	341
165	134
166	524
167	375
168	59
169	27
170	11
172	8
173	9
174	7
175	11
179	6
180	12
181	17
182	35
183	118
184	151
185	479
186	61
187	8
190	1
192	31
193	34
194	10
195	9
196	8
197	26
198	9
201	15
203	29
207	4
208	34
209	25
210	17
211	51
212	11
213	10
214	19
215	3
221	3
222	14
223	7
224	8
225	9
226	48
227	303
228	50
229	14
235	4
236	9
237	8
238	10
239	40
240	27
241	20
242	8
244	14
245	35
249	8
252	23
253	36
254	32
255	11
257	22
264	5
266	16
267	25
268	30
269	8
271	39
272	8
279	14
280	13
281	15
282	39
283	10
285	50
286	15
290	10
293	16
294	17
295	9
300	14
304	11
307	22
308	36
309	18
321	27
322	50
323	11
324	8
325	8
332	115
333	28
350	684
351	192
352	26
368	133
369	42
370	8
