Mass Spectrum: 2-Methyl-prop-1-enyl dithiopropanoate
Formula: C7H12S2
CAS: 65901-85-1
Molecular weight: 160
m/z	intensity
39	90
41	361
45	269
55	108
57	59
71	88
72	69
73	999
88	189
145	328
160	448
