Mass Spectrum: But-3-enyl dithiopropanoate
Formula: C7H12S2
CAS: 65901-88-4
Molecular weight: 160
m/z	intensity
39	129
41	79
45	280
55	269
71	79
73	999
76	39
77	39
85	30
106	288
112	30
113	99
126	39
127	29
131	29
132	19
145	29
160	159
