Mass Spectrum: 4-Amino-5-methylmercapto-1,2,4(4H)-triazole
Formula: C3H6N4S
CAS: 65901-91-9
Molecular weight: 130
m/z	intensity
30	111
41	98
42	118
43	227
44	80
45	98
46	50
47	61
55	98
56	78
57	98
69	118
70	320
71	79
72	80
73	79
74	199
97	49
102	98
113	89
114	161
115	68
130	999
