Mass Spectrum: 3-Methyl-4-methylamino-1,2,4-triazole-5-thiol
Formula: C4H8N4S
CAS: 65901-90-8
Molecular weight: 144
m/z	intensity
40	88
41	117
42	499
43	158
44	80
45	162
55	80
56	935
57	247
58	187
59	250
60	246
74	159
75	78
77	60
79	58
115	999
116	680
144	947
