Mass Spectrum: 1-Methyl-prop-2-enyl dithiopropanoate
Formula: C7H12S2
CAS: 65901-87-3
Molecular weight: 160
m/z	intensity
39	217
41	121
45	299
55	999
71	228
72	250
73	929
76	150
88	80
99	79
106	90
127	60
131	341
145	580
160	481
