Mass Spectrum: 4,4'-Bitriazolyl, 3-methyl-3'-phenyl-
Formula: C11H10N6
CAS: 65910-26-1
Molecular weight: 226
m/z	intensity
40	102
41	410
42	230
50	167
51	154
52	90
53	51
54	115
62	90
63	320
76	256
77	134
103	999
104	370
129	51
130	167
144	64
145	102
157	128
171	39
226	975
227	154
