Mass Spectrum: Diselenide, 4,4'-bis(4-methylbenzyl)-
Formula: C16H18Se2
CAS: 65915-30-2
Molecular weight: 370
m/z	intensity
77	90
78	40
79	70
103	50
104	20
105	999
106	110
209	110
366	30
367	20
368	50
370	50
372	20
