Mass Spectrum: Lanost-8-en-26-oic acid, 3.alpha.,12.alpha.-dihydroxy-24-methylene-, methyl ester, 3-acetate
Formula: C34H54O5
CAS: 6593-58-4
Molecular weight: 542
m/z	intensity
50	130
51	160
52	40
53	120
54	50
55	999
56	140
57	400
58	20
59	150
60	40
61	20
65	40
66	30
67	460
68	100
69	840
70	110
71	180
73	30
74	40
75	20
76	20
77	310
78	220
79	430
80	710
81	140
82	360
83	550
84	140
91	190
92	40
93	290
94	70
95	560
96	130
97	230
98	40
99	30
105	420
106	60
107	330
108	80
109	540
110	100
111	170
112	20
117	50
118	20
119	230
120	50
121	270
122	270
123	220
124	50
125	70
129	40
130	20
131	80
132	20
133	160
134	50
135	230
136	60
137	150
138	30
141	40
142	20
143	60
144	20
145	120
146	30
147	120
148	40
149	130
150	40
151	60
155	30
157	90
158	30
159	120
160	30
161	120
162	30
163	70
164	30
165	40
169	60
170	20
171	60
172	20
173	80
174	20
175	80
176	30
177	60
179	30
183	30
185	60
187	70
188	20
189	60
190	20
191	40
197	30
199	60
200	20
201	60
202	20
203	30
205	30
211	30
213	50
215	20
217	40
225	30
227	30
229	30
231	20
239	40
241	30
243	20
253	20
255	30
257	20
449	350
450	110
451	40
454	20
467	20
482	10
509	390
510	140
511	30
524	20
527	10
542	40
