Mass Spectrum: 1,3-Di(2-methoxyphenyl)benzo[f]quinazoline
Formula: C26H20N2O2
CAS: 65958-15-8
Molecular weight: 392
m/z	intensity
50	49
51	151
52	72
53	29
56	16
57	26
62	19
63	55
64	16
65	83
71	13
74	22
75	19
76	39
77	226
78	88
79	101
80	7
88	8
89	23
90	12
91	999
92	83
93	10
101	12
102	19
103	84
104	145
105	248
106	583
107	63
120	125
121	12
125	14
126	91
127	34
128	11
131	4
132	9
133	7
138	5
139	12
140	14
144	4
145	9
146	15
147	9
150	14
151	16
152	48
153	24
157	5
158	35
159	32
160	16
163	7
164	16
165	47
166	29
167	18
168	6
173	9
174	36
175	7
179	8
180	22
181	14
182	3
186	3
187	7
188	27
189	26
190	7
195	5
196	40
200	9
201	10
202	14
203	8
204	3
205	8
210	7
214	4
215	20
216	17
217	9
218	5
219	4
223	10
224	5
226	20
227	72
228	14
229	10
230	124
231	36
232	7
239	7
240	11
241	11
242	12
243	13
244	22
245	11
246	11
247	8
251	4
252	7
253	53
254	14
255	21
256	28
257	77
258	66
259	33
260	27
261	7
269	12
270	5
271	7
272	10
273	13
274	4
283	8
284	11
285	78
286	20
287	31
288	7
292	12
293	3
294	1
303	5
304	4
305	5
306	3
314	4
316	8
317	12
318	21
319	16
320	5
321	2
329	6
330	5
331	67
332	23
333	19
334	9
335	3
336	2
343	8
344	4
345	17
346	27
347	79
348	27
349	36
350	11
357	4
358	3
359	19
360	11
361	60
362	22
363	59
364	20
365	5
373	33
374	20
375	41
376	14
377	180
378	144
379	31
380	5
391	144
392	460
393	136
394	23
395	4
