Mass Spectrum: 1-Cyclohexen-3-ol, 3-(2-propenyl)-
Formula: C9H14O
CAS: 65995-76-8
Molecular weight: 138
m/z	intensity
25	2
26	39
27	232
28	84
29	165
30	50
31	82
33	2
34	1
37	7
38	16
39	188
40	64
41	281
42	384
43	104
44	29
45	9
46	9
47	2
49	2
50	13
51	28
52	15
53	37
54	32
55	171
56	32
57	9
58	167
59	11
60	8
61	1
62	2
63	7
64	1
65	16
66	9
67	78
68	232
69	45
70	66
71	6
72	55
73	11
74	2
75	12
76	1
77	47
78	7
79	108
80	7
81	6
82	5
83	2
84	5
86	156
87	570
88	28
89	2
91	13
92	3
93	2
94	2
95	21
96	70
97	999
98	60
99	4
103	2
104	1
105	23
106	2
109	3
110	5
119	6
120	12
121	4
138	2
