Mass Spectrum: 1-Piperidinyloxy, 4-(acetyloxy)-2,2,6,6-tetramethyl-
Formula: C11H20NO3
CAS: 6599-87-7
Molecular weight: 214
m/z	intensity
50	38
53	68
55	241
56	218
57	120
58	271
59	30
65	45
67	256
68	331
69	218
70	68
71	90
73	30
74	83
77	23
79	30
81	195
82	286
83	150
85	263
86	105
88	23
95	83
96	15
97	98
98	135
99	23
101	38
107	90
108	90
109	999
122	120
123	53
124	925
127	45
139	165
140	120
142	68
154	165
183	30
184	75
200	30
214	180
215	45
