Mass Spectrum: Uracil
Formula: C4H4N2O2
CAS: 66-22-8
Molecular weight: 112
m/z	intensity
26	45
27	20
28	253
30	8
38	28
39	80
40	296
41	254
42	447
43	61
50	8
51	25
53	17
54	9
67	11
68	179
69	523
70	61
77	8
112	999
113	38
114	12
