Mass Spectrum: Cycloheximide
Formula: C15H23NO4
CAS: 66-81-9
Molecular weight: 281
m/z	intensity
14	19
15	38
16	11
26	18
27	186
28	77
29	264
30	11
31	31
36	9
38	24
39	164
40	46
41	560
42	225
43	347
44	101
45	70
50	20
51	29
52	16
53	101
54	52
55	649
56	175
57	284
58	43
59	114
60	74
61	6
63	15
64	3
65	32
66	22
67	136
68	80
69	522
70	135
71	137
72	25
73	21
74	5
75	17
76	4
77	51
78	10
79	63
80	27
81	152
82	146
83	217
84	999
85	135
86	42
87	9
91	38
92	7
93	81
94	150
95	164
96	154
97	200
98	47
99	71
100	25
101	3
105	21
106	4
107	81
108	41
109	242
110	85
111	234
112	343
113	93
114	36
115	14
117	4
119	24
120	14
121	29
122	39
123	61
124	31
125	201
126	469
127	145
128	22
129	5
133	33
134	25
135	23
136	31
137	112
138	68
139	48
140	21
141	17
145	3
147	17
148	4
149	26
150	40
151	147
152	168
153	55
154	32
155	132
156	47
157	5
158	4
159	4
161	14
162	6
163	16
164	18
165	20
166	41
167	14
168	54
169	23
170	29
171	34
173	20
174	2
175	12
176	30
177	22
178	6
179	15
180	5
181	5
182	12
183	8
186	5
187	7
189	9
190	3
192	13
193	22
194	5
195	12
196	4
197	8
203	8
204	90
205	153
206	45
207	5
217	3
218	16
219	15
220	41
221	24
223	4
230	3
231	3
235	4
236	4
238	41
245	15
246	5
248	25
251	11
252	2
253	20
263	331
264	60
265	4
281	10
