Mass Spectrum: 5-Aminovaleric acid
Formula: C5H11NO2
CAS: 660-88-8
Molecular weight: 117
m/z	intensity
14	1
15	18
18	34
26	8
27	50
28	88
29	45
30	999
31	61
32	13
37	0
38	4
39	32
40	8
41	45
42	75
43	53
44	68
45	138
46	0
52	0
53	2
54	8
55	77
56	77
57	9
58	8
60	23
68	0
70	11
71	7
72	12
73	4
89	0
98	15
99	21
100	7
117	28
118	0
