Mass Spectrum: Ethyl hydrogen dodecanedioate
Formula: C14H26O4
CAS: 66003-63-2
Molecular weight: 258
m/z	intensity
15	7
17	3
18	1
26	8
27	146
28	55
29	412
30	10
31	25
38	1
39	77
40	16
41	454
42	94
43	207
44	8
45	162
46	4
47	3
48	1
51	3
52	2
53	33
54	44
55	510
56	68
57	88
58	15
59	44
60	345
61	257
62	8
63	1
64	1
65	6
66	4
67	107
68	59
69	365
70	264
71	63
72	5
73	243
74	34
75	8
76	1
77	5
78	4
79	32
80	28
81	96
82	39
83	213
84	420
85	50
86	7
87	46
88	999
89	276
90	15
91	11
92	5
93	39
94	24
95	53
96	55
97	172
98	933
99	74
100	10
101	230
102	26
103	3
104	1
105	7
106	7
107	27
108	22
109	39
110	36
111	119
112	309
113	30
114	10
115	59
116	8
117	2
118	1
119	9
120	6
121	17
122	13
123	31
124	29
125	50
126	49
127	11
128	11
129	36
130	9
131	3
132	2
133	11
134	24
135	107
136	13
137	16
138	38
139	13
140	9
141	7
142	9
143	50
144	14
145	2
146	1
147	10
148	21
149	46
150	15
151	19
152	44
153	97
154	11
155	5
156	13
157	66
158	12
159	7
160	1
161	1
164	2
165	11
166	76
167	41
168	10
169	4
170	8
171	14
172	5
175	5
176	12
177	6
178	2
179	2
182	1
183	4
184	14
185	7
186	14
187	2
192	2
193	9
194	119
195	23
196	10
197	7
198	6
199	115
200	15
201	2
211	5
212	11
213	309
214	53
215	7
222	6
223	1
238	1
239	2
240	10
241	37
242	6
259	10
260	2
