Mass Spectrum: benz[d]isozazole, 3-ethyl-
Formula: C9H9NO
CAS: 66033-77-0
Molecular weight: 147
m/z	intensity
41	38
42	7
43	14
44	4
45	7
47	2
48	1
49	19
50	65
51	91
52	82
53	30
54	24
55	12
56	3
57	8
59	7
60	3
61	31
62	85
63	301
64	247
65	87
66	11
67	5
68	2
69	6
70	1
71	4
72	0
73	5
74	21
75	24
76	31
77	56
78	26
79	6
80	1
81	2
82	1
83	4
84	8
85	5
86	13
87	9
88	13
89	20
90	60
91	772
92	103
93	15
94	0
95	2
96	0
97	3
98	2
99	2
100	0
101	2
102	17
103	9
104	33
105	12
106	5
107	1
109	1
110	0
111	1
113	0
114	0
115	8
116	3
117	10
118	15
119	999
120	110
121	11
122	0
123	0
129	0
130	0
131	0
132	39
133	49
134	5
144	0
145	0
146	101
147	555
148	76
149	6
150	1
