Mass Spectrum: Cyanamide, (trimethylphosphoranylidene)-
Formula: C4H9N2P
CAS: 66055-10-5
Molecular weight: 116
m/z	intensity
41	210
45	670
46	200
47	300
57	490
59	340
61	350
71	300
73	999
75	650
76	770
101	510
116	930
