Mass Spectrum: 2-Methoxymethylene-bicyclo[2.2.1]heptane
Formula: C9H14O
CAS: 66051-08-9
Molecular weight: 138
m/z	intensity
26	12
27	104
28	5
29	46
30	1
31	15
37	6
38	20
39	199
40	47
41	255
42	34
43	28
44	5
45	65
47	17
49	2
50	22
51	51
52	27
53	88
54	162
55	74
56	11
57	23
58	10
59	10
61	4
62	6
63	17
64	5
65	73
66	401
67	569
68	115
69	39
70	12
71	44
72	9
74	5
75	247
76	11
77	116
78	52
79	165
80	79
81	126
82	35
83	20
84	37
85	5
87	8
88	3
89	3
91	126
92	45
93	83
94	60
95	110
96	18
97	91
98	9
103	7
104	3
105	29
106	43
107	37
108	15
109	999
110	334
111	63
112	5
113	1
114	3
115	2
121	5
122	8
123	102
124	20
125	5
137	25
138	247
139	26
140	3
