Mass Spectrum: Cyanamide, (dimethylphenylphosphoranylidene)-
Formula: C9H11N2P
CAS: 66055-11-6
Molecular weight: 178
m/z	intensity
50	370
51	999
62	490
65	330
77	610
78	220
91	940
107	230
109	340
121	380
123	230
138	200
163	290
178	710
