Mass Spectrum: 1,6-Hexanediol dimethacrylate
Formula: C14H22O4
CAS: 6606-59-3
Molecular weight: 254
m/z	intensity
30	5
31	25
32	5
36	1
37	7
38	19
39	367
40	129
41	999
42	98
43	59
44	14
45	13
50	1
51	2
52	2
53	22
54	283
55	318
56	22
57	17
58	5
59	16
65	3
67	200
68	77
69	682
70	46
71	21
72	1
77	1
78	1
79	8
80	9
81	44
82	161
83	119
84	24
85	6
86	25
87	67
88	3
93	1
94	5
95	14
96	4
97	12
98	25
99	14
100	1
101	4
107	2
108	25
109	11
110	4
111	6
112	2
113	1
122	1
123	2
124	1
125	10
126	28
127	8
128	1
136	18
137	1
138	2
139	1
153	2
154	8
155	2
168	1
169	1
172	3
173	2
226	1
