Mass Spectrum: Acetaldehyde, methyl(2-propenyl)hydrazone
Formula: C6H12N2
CAS: 66075-10-3
Molecular weight: 112
m/z	intensity
29	60
30	450
39	310
40	70
41	810
42	999
43	640
44	580
55	90
56	260
68	170
69	980
70	140
71	590
85	480
97	70
111	60
112	750
113	60
