Mass Spectrum: Formaldehyde, methyl(2-propenyl)hydrazone
Formula: C5H10N2
CAS: 66075-09-0
Molecular weight: 98
m/z	intensity
29	140
30	600
39	300
41	400
42	910
43	999
44	70
55	600
56	100
57	750
68	140
71	340
83	80
97	60
98	580
99	50
