Mass Spectrum: Ethenesulfonyl chloride
Formula: C2H3ClO2S
CAS: 6608-47-5
Molecular weight: 126
m/z	intensity
24	1
25	13
26	142
27	999
29	10
30	0
31	0
33	3
34	0
35	7
36	4
37	2
38	1
39	0
40	6
41	1
42	7
43	10
44	3
45	11
46	3
47	3
48	42
49	10
50	2
51	1
52	0
53	0
55	0
56	2
57	8
58	11
59	3
60	1
61	4
62	78
63	147
64	40
65	57
66	2
67	2
68	0
69	0
70	0
71	0
73	0
75	0
76	0
77	0
78	0
79	0
81	0
83	15
84	1
85	5
86	0
87	0
89	0
91	618
92	19
93	26
94	0
95	0
96	0
97	1
99	6
100	0
101	2
102	0
103	0
127	6
128	0
129	2
