Mass Spectrum: N,N-Diethyl-2-phenylvinyl sulfonamide
Formula: C12H17NO2S
CAS: 66089-46-1
Molecular weight: 239
m/z	intensity
41	19
42	158
43	11
44	131
45	18
47	5
48	2
49	32
50	37
51	149
52	22
53	8
54	5
55	4
56	133
57	18
58	149
59	5
62	6
63	27
64	18
65	12
66	1
70	13
71	23
72	55
73	17
74	17
75	22
76	39
77	358
78	31
79	6
84	29
86	15
88	14
89	8
90	5
91	23
92	11
101	10
102	90
103	999
104	132
105	14
107	3
112	12
115	4
117	13
118	16
119	1
120	8
122	4
123	4
130	6
133	2
134	5
136	7
146	4
160	11
167	899
168	85
169	47
170	3
174	4
175	68
176	9
224	454
225	58
226	24
238	9
239	120
240	24
241	4
