Mass Spectrum: n-Octane-8-amino-1-aminocarboxylic acid, benzyl(ester)
Formula: C16H26N2O2
CAS: 66095-19-0
Molecular weight: 278
m/z	intensity
41	59
42	20
43	28
44	75
45	56
46	10
50	5
51	17
52	6
53	6
54	5
55	48
56	58
57	8
58	17
59	53
60	5
62	6
63	14
64	5
65	89
66	2
67	20
68	2
69	23
70	14
71	1
72	39
73	19
74	51
75	4
76	1
77	34
78	10
79	55
80	46
81	24
82	44
83	6
84	9
85	4
86	72
87	22
88	5
89	30
91	999
92	111
93	6
95	2
96	6
97	10
98	5
100	67
101	28
102	4
103	1
104	27
105	28
106	20
107	35
108	70
109	12
110	6
112	5
114	134
115	18
116	3
117	6
118	7
119	5
120	17
121	1
124	2
126	73
127	7
128	12
129	6
130	3
131	8
132	3
133	4
134	2
140	5
143	57
144	8
145	4
146	2
147	3
149	3
150	1
151	7
152	2
155	2
158	32
159	4
162	1
164	6
169	15
170	8
171	14
172	21
173	5
187	10
188	6
192	1
204	4
206	7
219	2
235	1
236	3
278	78
279	25
280	3
