Mass Spectrum: Pregnan-20-one, 3,17-dihydroxy-, (3.alpha.)-
Formula: C21H34O3
CAS: 6609-97-8
Molecular weight: 334
m/z	intensity
41	273
43	999
44	68
45	38
47	17
48	8
49	5
50	5
51	2
52	6
53	105
54	10
55	351
56	8
57	235
58	40
59	37
60	1
61	3
62	0
63	2
65	50
66	19
67	267
68	53
69	107
70	26
71	46
72	8
73	2
74	3
75	1
77	129
78	25
79	272
80	41
81	206
82	28
83	98
84	42
85	13
86	20
87	50
88	9
89	2
91	247
92	37
93	229
94	58
95	155
96	20
97	54
98	7
100	67
101	5
102	0
103	17
104	3
105	189
106	46
107	184
108	53
109	88
110	17
111	22
112	2
113	3
114	0
115	21
116	10
117	46
118	14
119	104
120	38
121	94
122	32
123	37
124	4
125	8
126	1
127	5
128	11
129	26
130	9
131	62
132	15
133	111
134	34
135	81
136	16
137	17
138	2
139	3
141	7
142	5
143	19
144	2
145	93
146	20
147	130
148	29
149	34
150	11
151	13
152	3
153	4
154	1
155	5
156	3
157	17
158	2
159	88
160	25
161	84
162	20
163	19
164	3
165	9
166	2
167	1
169	5
170	0
171	17
172	9
173	72
174	28
175	35
176	16
177	11
178	2
179	5
180	0
181	1
183	5
184	1
185	18
186	7
187	44
188	5
189	18
190	4
191	10
192	1
193	1
195	2
196	0
197	5
199	40
200	9
201	49
202	12
203	12
204	3
205	2
207	1
209	2
210	0
211	4
213	37
214	3
215	181
216	38
217	23
218	4
219	7
220	1
221	1
223	2
225	5
226	5
227	10
228	45
229	177
230	71
231	14
232	2
233	2
234	0
237	0
239	4
240	2
241	5
242	22
243	8
244	8
245	2
246	4
247	1
248	0
253	7
255	246
256	55
257	10
258	1
259	2
260	0
261	1
262	13
263	2
265	7
266	1
267	0
269	1
270	0
271	8
273	151
274	30
275	5
276	1
280	1
281	2
283	11
284	2
285	1
287	1
291	92
292	17
293	2
297	0
298	17
299	19
300	7
301	13
302	2
303	1
316	79
317	19
318	3
319	0
334	164
335	35
336	4
