Mass Spectrum: Benzonitrile, 2-ethoxy-
Formula: C9H9NO
CAS: 6609-57-0
Molecular weight: 147
m/z	intensity
14	1
15	6
25	1
26	21
27	98
28	15
29	80
30	2
36	1
37	19
38	33
39	62
40	5
41	12
42	2
43	6
44	0
49	3
50	22
51	27
52	29
53	6
55	1
61	8
62	18
63	74
64	87
65	19
66	2
67	0
73	1
74	8
75	33
76	24
77	7
78	1
86	0
87	3
88	6
89	4
90	41
91	392
92	49
93	2
99	3
100	1
101	0
102	30
103	5
104	3
116	0
117	2
119	999
120	76
121	5
132	9
146	2
147	238
148	21
149	1
