Mass Spectrum: Tetramethylammonium tetrafluoroborate
Formula: C4H12BF4N
CAS: 661-36-9
Molecular weight: 161
m/z	intensity
11	1
12	1
13	4
14	16
15	119
16	2
19	2
20	9
24	1
25	1
26	8
27	20
28	42
29	28
30	112
31	3
32	4
33	31
34	31
38	3
39	7
40	20
41	32
42	219
43	48
44	24
45	3
46	1
47	1
48	52
49	211
50	1
51	3
52	3
53	1
54	5
55	4
56	22
57	38
58	798
59	321
60	11
61	1
62	1
63	2
65	1
67	3
68	11
69	1
70	3
71	2
72	4
73	56
74	999
75	49
76	5
77	3
78	1
