Mass Spectrum: 4-Cyanophenyl trifluoromethanesulfonate
Formula: C8H4F3NO3S
CAS: 66107-32-2
Molecular weight: 251
m/z	intensity
37	80
38	49
39	140
62	49
63	158
64	168
69	999
90	340
102	49
118	110
121	50
187	240
251	170
