Mass Spectrum: 3-Cyclopropylphenyl trifluoromethanesulfonate
Formula: C10H9F3O3S
CAS: 66107-35-5
Molecular weight: 266
m/z	intensity
39	169
50	71
51	207
55	59
63	69
65	59
69	149
77	381
78	110
79	350
89	60
91	49
103	189
105	999
106	90
115	140
131	120
133	269
266	80
