Mass Spectrum: 2-Tolyl trifluoromethanesulfonate
Formula: C8H7F3O3S
CAS: 66107-34-4
Molecular weight: 240
m/z	intensity
39	101
51	227
52	61
53	60
69	160
77	519
78	109
79	390
90	49
91	91
107	999
108	78
240	290
