Mass Spectrum: 3-Methoxyphenyl trifluoromethanesulfonate
Formula: C8H7F3O4S
CAS: 66107-33-3
Molecular weight: 256
m/z	intensity
39	210
41	341
51	89
52	292
63	100
64	99
65	158
69	341
77	59
80	161
83	69
92	69
93	90
95	999
96	81
108	50
123	508
162	149
256	40
