Mass Spectrum: Butylsemithiocarbazide
Formula: C5H13N3S
CAS: 6610-31-7
Molecular weight: 147
m/z	intensity
27	100
29	305
30	171
31	67
32	999
39	61
41	260
43	156
44	82
45	32
55	100
56	37
57	373
58	33
59	43
60	172
70	12
71	18
72	119
73	10
74	34
75	75
84	12
88	10
97	24
101	16
102	6
104	8
114	10
115	16
116	36
117	15
118	8
130	102
131	32
132	18
147	907
148	115
149	47
150	4
