Mass Spectrum: Piperid-4-one, 3-ethyl-2,6-diphenyl-, oxime
Formula: C19H22N2O
CAS: 66110-28-9
Molecular weight: 294
m/z	intensity
35	2
36	21
38	3
39	85
40	43
41	101
42	32
43	20
44	7
45	2
50	29
51	79
52	35
53	31
54	53
55	30
57	16
62	2
63	36
64	19
65	65
66	14
67	47
68	91
69	9
70	5
73	4
74	6
75	19
76	59
77	299
78	178
79	171
80	25
81	3
82	105
83	16
84	14
85	1
89	98
90	80
91	307
92	18
93	6
94	3
96	2
98	9
102	67
103	215
104	451
105	194
106	999
107	93
108	3
114	5
115	136
116	123
117	136
118	53
119	20
120	3
121	1
122	11
127	33
128	115
129	105
130	131
131	61
132	63
133	36
135	18
136	2
139	3
140	2
141	14
142	20
143	48
144	62
145	38
146	83
147	45
148	12
152	38
153	9
154	4
155	9
156	40
157	40
158	25
159	11
160	51
161	8
164	2
165	68
166	28
167	55
168	9
170	27
171	25
172	141
173	46
174	86
175	9
176	3
178	5
186	1
188	43
189	41
190	6
191	2
193	63
194	454
195	111
196	9
204	3
206	15
208	133
209	26
219	1
220	2
222	8
233	1
234	2
236	8
246	8
247	7
248	1
249	3
251	3
258	6
261	2
263	2
264	3
265	168
266	24
273	2
275	11
277	410
278	73
279	19
292	5
294	794
295	163
296	12
