Mass Spectrum: 3,5,6,8-Tetrabromo-1,10-phenanthroline
Formula: C12H4Br4N2
CAS: 66127-00-2
Molecular weight: 492
m/z	intensity
40	24
41	35
43	20
44	42
45	54
46	1
48	39
49	92
50	288
51	186
52	57
53	29
56	1
57	5
60	42
61	814
62	776
63	68
64	12
65	5
68	7
69	15
72	59
73	194
74	999
75	450
76	143
77	35
79	70
80	63
81	65
82	54
84	35
85	162
86	200
87	187
88	272
89	69
90	13
91	12
93	27
97	137
98	366
99	359
100	154
101	154
102	89
103	40
104	11
105	43
106	76
107	5
108	44
109	44
110	102
111	97
112	54
113	33
114	126
115	151
117	64
118	24
120	73
121	64
122	187
123	253
124	127
125	83
126	17
128	563
129	262
130	57
131	2
133	116
134	25
135	110
136	22
137	20
138	18
139	24
140	21
141	41
142	41
143	14
144	3
145	11
146	11
147	101
148	204
149	403
150	113
151	85
152	77
153	97
154	170
155	123
156	30
157	10
158	48
162	9
163	20
164	14
165	34
167	159
168	278
169	123
170	46
172	1
173	5
174	13
175	85
176	574
177	116
178	82
179	28
182	21
183	5
184	4
188	10
189	10
191	76
192	17
193	71
194	34
195	50
196	7
197	9
198	9
201	21
202	27
206	65
207	505
208	300
209	182
210	17
213	5
214	5
217	2
218	4
219	38
220	14
221	6
222	11
224	9
227	24
228	50
230	74
232	16
233	23
234	7
236	9
237	3
238	4
242	3
244	4
246	21
247	77
248	196
249	46
250	20
252	5
253	90
254	79
255	244
256	117
257	298
258	36
259	12
265	18
266	2
267	49
268	22
269	24
270	5
272	7
273	4
274	3
281	28
282	43
283	39
286	6
291	6
292	2
293	8
294	2
297	5
298	5
300	8
304	1
305	3
306	6
307	5
308	7
309	33
310	2
311	19
313	3
321	2
324	2
326	8
329	3
330	2
331	21
332	18
334	133
335	26
336	265
337	93
338	102
339	25
340	32
341	20
344	4
345	7
346	9
348	6
349	2
351	11
354	3
356	28
369	6
371	11
372	3
374	17
383	7
386	4
387	11
388	3
389	2
395	3
398	3
399	1
401	1
403	7
404	1
407	1
408	3
410	1
411	8
412	21
413	94
414	49
415	286
416	117
417	343
418	100
419	68
420	19
422	6
427	12
428	12
430	5
433	1
435	5
437	3
450	1
451	1
452	3
463	4
467	3
468	12
470	3
472	7
475	1
477	6
478	1
480	9
483	3
486	2
488	5
489	7
490	1
491	35
492	239
493	115
494	732
495	245
496	927
497	281
498	627
499	110
500	136
501	11
503	2
504	6
506	4
509	4
511	2
513	4
