Mass Spectrum: [1,3]Benzodioxolo[5,6-a]cyclopenta[i]quinolizin-3-one, 1,2,5,6,12,13,14,14a-octahydro-
Formula: C17H19NO3
CAS: 6612-99-3
Molecular weight: 285
m/z	intensity
50	190
51	500
55	100
83	60
84	999
86	590
88	100
89	60
115	90
148	110
172	60
199	110
214	190
215	90
228	330
229	200
242	380
243	920
244	150
256	520
257	100
284	60
285	400
286	120
