Mass Spectrum: 4-Bromo-2,5-dimethoxyphenethylamine
Formula: C10H14BrNO2
CAS: 66142-81-2
Molecular weight: 259
m/z	intensity
14	3
15	41
16	1
17	1
25	1
26	3
27	12
28	59
30	999
31	18
33	1
37	5
38	15
39	52
40	7
41	11
42	13
43	12
44	8
45	1
47	1
49	2
50	45
51	70
52	18
53	78
54	9
55	6
56	1
57	3
59	1
61	7
62	23
63	61
64	34
65	48
66	15
67	19
68	4
69	3
70	1
73	2
74	19
75	31
76	32
77	161
78	46
79	35
80	7
81	2
82	1
85	2
86	4
87	5
88	3
89	41
90	37
91	75
92	46
93	28
94	10
95	2
96	1
98	1
100	1
101	1
102	2
103	7
104	16
105	80
106	25
107	24
108	31
109	5
110	1
115	1
116	2
117	8
118	6
119	13
120	26
121	40
122	22
123	5
124	1
128	1
129	2
130	1
131	6
132	7
133	16
134	8
135	12
136	23
137	4
138	1
141	1
143	27
144	2
145	25
146	3
147	7
148	14
149	22
150	21
151	17
152	2
153	1
154	1
155	4
156	5
157	10
158	6
159	5
160	1
161	2
162	2
163	4
164	9
165	3
167	1
168	2
169	14
170	5
171	22
172	7
173	9
174	4
175	1
178	1
179	3
180	8
181	1
182	1
183	3
184	10
185	7
186	21
187	12
188	11
189	7
197	1
199	48
200	8
201	49
202	6
203	4
210	1
211	1
212	2
213	2
215	131
217	123
218	11
219	1
226	1
227	5
228	9
230	511
231	94
232	480
233	48
234	3
242	1
243	1
244	1
245	1
259	66
260	9
261	65
262	7
263	1
