Mass Spectrum: 2-(3-Chlorophenyl)-3-oxopropanenitrile
Formula: C9H6ClNO
CAS: 66154-58-3
Molecular weight: 179
m/z	intensity
35	2
36	2
37	139
38	240
39	429
40	67
41	93
42	21
43	60
44	20
47	11
49	83
50	369
51	261
52	76
53	17
55	41
56	13
57	34
60	42
61	210
62	394
63	557
64	155
65	74
67	18
69	56
72	28
73	218
74	170
75	248
76	120
77	42
81	19
84	36
85	91
86	132
87	252
88	315
89	951
90	113
97	62
98	33
99	73
100	28
101	19
111	27
112	23
114	278
115	182
116	999
117	95
123	347
124	328
125	137
126	104
143	11
144	131
145	11
150	172
151	883
152	131
153	291
154	22
178	19
179	452
180	49
181	150
