Mass Spectrum: 3-Cyanophenyl trifluoromethanesulfonate
Formula: C8H4F3NO3S
CAS: 66152-74-7
Molecular weight: 251
m/z	intensity
37	50
38	69
39	201
62	49
63	168
64	140
69	999
90	301
102	60
118	120
121	119
187	200
251	170
