Mass Spectrum: Phosphonic acid, methyl-, ethyl 1-methylethyl ester
Formula: C6H15O3P
CAS: 66194-00-1
Molecular weight: 166
m/z	intensity
26	17
27	97
29	70
31	30
37	6
38	11
39	84
40	21
41	113
42	51
43	210
44	20
45	185
46	5
47	106
48	14
49	22
59	35
62	8
63	14
65	105
78	21
79	792
80	281
81	80
91	35
93	19
96	29
97	999
105	12
107	153
108	100
109	61
111	6
121	127
122	7
123	523
124	205
125	630
126	30
127	5
137	6
151	363
152	21
165	23
