Mass Spectrum: 2-Propenoic acid, 2-(acetyloxy)-3-phenyl-, 1-acetyl-2,2-dimethylhydrazide
Formula: C15H18N2O4
CAS: 66190-57-6
Molecular weight: 290
m/z	intensity
102	640
118	999
133	500
134	390
147	250
164	110
189	780
206	530
248	580
290	170
