Mass Spectrum: Bromomethylphosphonic acid, diethyl ester
Formula: C5H12BrO3P
CAS: 66197-72-6
Molecular weight: 230
m/z	intensity
25	10
26	127
27	634
28	193
29	999
30	45
31	166
32	26
33	11
34	1
35	0
36	5
37	1
38	3
39	16
40	5
41	41
42	25
43	147
44	25
45	287
46	9
47	204
48	98
49	23
50	6
51	7
52	2
53	4
54	5
55	6
56	1
57	8
58	1
59	10
60	2
61	21
62	7
63	10
64	7
65	355
66	5
67	6
68	1
69	3
70	0
71	1
72	1
73	6
74	1
75	13
76	3
77	94
78	82
79	40
80	32
81	928
82	33
83	8
84	0
87	0
89	1
90	1
91	325
92	17
93	284
94	20
95	175
96	87
97	48
98	1
99	16
103	3
104	4
105	7
106	17
107	12
108	245
109	920
110	230
111	14
112	3
113	2
114	1
117	0
118	0
119	2
120	8
121	16
122	3
123	82
124	12
125	6
126	0
127	78
128	7
129	68
130	2
131	1
132	0
133	2
134	1
135	8
136	1
137	145
138	8
139	2
140	1
141	6
142	1
143	11
144	1
145	6
146	0
147	13
148	3
149	2
150	1
151	33
152	3
153	1
155	13
156	32
157	242
158	64
159	238
160	44
161	5
165	0
167	1
169	1
171	1
173	4
174	49
175	376
176	51
177	369
178	5
179	3
181	0
182	1
184	1
185	82
186	72
187	108
188	75
189	27
190	0
191	1
201	38
202	27
203	634
204	51
205	592
206	20
207	6
215	15
216	1
217	17
218	1
219	0
222	0
229	5
230	68
231	9
232	71
233	5
