Mass Spectrum: Butanamide, 2,2,3,3,4,4,4-heptafluoro-
Formula: C4H2F7NO
CAS: 662-50-0
Molecular weight: 213
m/z	intensity
16	10
27	2
28	101
29	4
31	53
32	34
40	3
42	1
43	29
44	999
45	16
46	13
47	4
50	28
51	23
62	5
66	38
69	188
70	4
71	3
73	1
74	3
77	2
78	6
81	8
82	1
93	6
97	2
100	58
108	1
109	8
116	4
119	40
131	3
146	27
150	2
166	36
169	8
194	7
