Mass Spectrum: 2(5H)-Furanone, 4,5-diphenyl-
Formula: C16H12O2
CAS: 6620-27-5
Molecular weight: 236
m/z	intensity
26	2
27	17
28	4
29	5
31	1
37	1
38	7
39	39
40	3
41	9
42	3
43	20
44	5
45	4
49	1
50	61
51	141
52	37
53	9
55	4
56	2
57	4
58	4
59	1
60	1
61	4
62	21
63	59
64	9
65	15
66	1
67	2
68	1
69	9
70	2
71	2
73	4
74	36
75	50
77	352
78	40
79	7
80	2
81	5
82	5
83	4
84	1
85	2
86	9
87	17
88	15
89	48
90	18
91	5
93	1
94	6
95	9
96	4
97	2
98	7
99	5
100	2
101	19
102	999
103	240
104	35
105	663
106	56
107	6
109	3
110	2
111	3
112	1
113	9
114	8
115	51
116	5
118	3
122	1
123	1
125	1
126	7
127	4
128	3
129	13
130	31
131	361
132	41
133	3
137	2
138	1
139	13
140	2
141	3
149	7
150	7
151	12
152	20
153	5
157	3
158	30
159	6
162	1
163	13
164	8
165	50
166	8
175	2
176	15
177	12
178	52
179	44
180	29
181	5
185	1
186	1
187	6
188	6
189	53
190	16
191	42
192	11
193	2
205	2
206	2
207	169
208	178
209	26
235	5
236	664
237	126
238	14
