Mass Spectrum: 4-Methoxytropone
Formula: C8H8O2
CAS: 6621-70-1
Molecular weight: 136
m/z	intensity
27	54
29	69
37	92
38	220
39	702
50	291
51	319
52	84
53	93
62	69
63	138
64	73
65	986
66	88
74	118
76	37
77	163
78	768
79	192
80	31
92	32
93	289
94	23
95	18
107	33
108	999
109	85
136	295
137	29
