Mass Spectrum: Piperidine, 2-(2,2-dicyclohexylethyl)-
Formula: C19H35N
CAS: 6621-47-2
Molecular weight: 277
m/z	intensity
27	3
28	8
29	7
30	11
39	7
40	1
41	49
42	9
43	8
44	6
45	1
51	1
52	1
53	9
54	12
55	105
56	58
57	9
58	1
65	4
66	2
67	30
68	14
69	12
70	12
71	2
72	1
77	6
78	1
79	13
80	7
81	22
82	23
83	37
84	999
85	69
86	2
91	6
92	1
93	6
94	4
95	21
96	14
97	22
98	17
99	14
100	2
105	1
106	1
107	2
108	2
109	5
110	9
111	1
112	2
119	1
120	1
121	3
122	2
123	1
124	1
134	1
135	2
136	2
137	1
138	1
148	1
150	1
152	2
164	1
166	3
178	1
190	1
192	8
194	95
195	14
196	1
276	3
277	4
278	1
