Mass Spectrum: Formamide, N-(1,3,3-trimethyl-2-norbornyl)-
Formula: C11H19NO
CAS: 6622-69-1
Molecular weight: 181
m/z	intensity
37	0
39	115
41	298
42	77
43	171
44	26
46	398
47	7
49	0
50	4
51	22
52	18
53	115
54	48
55	218
56	165
57	69
58	28
59	42
60	19
62	0
64	2
65	47
66	27
67	188
68	74
69	111
70	388
71	49
72	119
73	7
74	0
77	97
78	15
79	197
80	293
81	999
82	231
83	62
84	108
85	17
86	52
87	2
89	1
91	108
92	88
93	357
94	99
95	95
96	62
98	568
99	178
100	540
101	821
102	472
103	37
104	4
105	42
106	22
107	138
108	68
109	24
110	48
111	48
112	57
113	22
114	1
115	2
116	0
117	1
118	1
119	14
121	453
122	97
123	352
124	64
125	18
126	50
127	5
128	0
131	0
132	0
133	1
134	5
136	829
137	140
138	102
139	10
140	9
141	0
145	0
146	0
147	0
148	4
150	3
152	37
153	11
154	0
157	0
162	1
163	5
164	7
166	62
167	7
168	0
171	0
172	0
175	0
178	0
179	0
181	337
182	164
183	21
184	1
186	0
189	0
