Mass Spectrum: Benzene, (4-pentylcyclohexyl)-
Formula: C17H26
CAS: 66227-31-4
Molecular weight: 230
m/z	intensity
29	191
39	71
41	232
43	132
55	158
57	122
65	63
67	79
69	104
71	84
77	61
78	74
81	120
82	76
83	66
91	467
92	127
97	76
104	999
105	132
115	104
117	345
118	227
230	396
231	75
232	6
