Mass Spectrum: 4(1H)-Pyrimidinone, 2,6-dimethyl-
Formula: C6H8N2O
CAS: 6622-92-0
Molecular weight: 124
m/z	intensity
14	2
15	30
25	1
26	10
27	30
28	39
29	3
30	1
37	7
38	18
39	60
40	36
41	56
42	706
43	30
44	6
50	1
51	6
52	15
53	9
54	43
55	74
56	6
57	1
63	1
64	3
65	4
66	16
67	18
68	132
69	23
70	1
79	1
80	2
81	9
82	9
83	73
84	28
85	8
93	1
94	1
95	97
96	143
97	13
106	1
107	5
109	23
110	2
123	1
124	999
125	95
126	6
