Mass Spectrum: Chlorothiophos O-analog 2,5-isomer
Formula: C11H15Cl2O4PS
CAS: 66229-12-7
Molecular weight: 344
m/z	intensity
40	1
41	6
42	2
43	51
45	536
46	27
47	112
50	16
51	13
53	31
55	0
57	2
58	5
59	3
60	2
61	29
62	73
63	85
65	107
66	0
69	188
70	6
71	8
72	3
73	30
74	17
75	17
76	1
77	13
79	96
81	999
82	9
83	12
84	4
85	15
88	0
91	237
92	6
93	61
94	22
95	19
96	11
97	104
98	4
99	87
102	0
103	18
104	17
105	28
106	25
107	19
108	68
109	597
110	13
111	12
114	4
115	8
117	3
118	4
119	9
120	5
121	27
124	0
128	1
129	180
131	61
133	39
135	12
139	1
144	54
146	21
153	2
154	1
162	1
163	1
165	0
170	2
171	16
172	10
173	45
174	10
175	19
176	7
179	86
181	42
184	1
185	6
186	1
187	2
188	3
189	137
190	9
191	49
192	10
193	308
194	19
195	198
197	20
198	0
199	0
200	0
201	3
202	2
203	9
204	0
205	12
206	15
207	261
208	944
209	246
210	640
211	74
212	108
214	2
216	0
217	11
218	47
219	16
220	27
221	13
224	1
225	2
233	2
234	1
235	5
236	3
237	8
240	1
241	6
242	2
243	5
244	0
245	4
246	0
247	1
251	6
252	199
253	914
254	141
255	328
256	23
257	6
263	0
265	5
266	0
267	0
268	0
269	2
270	52
271	25
272	33
273	15
275	3
279	5
280	13
281	204
282	20
283	66
285	1
287	15
288	96
289	18
290	62
291	0
292	6
293	0
294	0
299	1
301	32
303	17
305	2
309	149
310	14
311	50
313	0
315	9
316	69
317	10
318	43
320	2
329	2
331	1
343	0
344	517
345	64
346	350
347	37
348	59
350	0
