Mass Spectrum: N-Dimethylaminomethylidene-4-sphingenine benzeneboronate
Formula: C27H45BN2O2
CAS: 66237-79-4
Molecular weight: 440
m/z	intensity
43	161
44	247
57	217
73	107
83	250
97	336
98	999
125	70
200	210
201	977
202	665
363	370
440	39
