Mass Spectrum: Octadecane-1,3-diol methaneboronate
Formula: C19H39BO2
CAS: 66237-68-1
Molecular weight: 310
m/z	intensity
41	120
43	299
55	199
57	179
68	129
69	170
81	108
82	160
96	131
98	308
99	999
222	69
250	99
310	9
