Mass Spectrum: 6-Aza-B-homo-5.alpha.-cholestano[6,7-d]tetrazole
Formula: C27H46N4
CAS: 66233-39-4
Molecular weight: 426
m/z	intensity
43	999
55	750
57	625
67	500
69	565
71	429
82	506
83	245
84	325
85	772
91	351
93	368
95	678
96	238
97	250
107	401
108	257
109	441
111	250
112	252
113	493
114	220
134	115
135	602
136	425
137	148
149	168
150	101
151	122
152	168
153	122
160	52
161	172
162	82
164	118
165	72
166	199
167	68
175	74
176	122
177	98
178	54
179	25
180	49
181	38
182	62
189	62
190	58
191	64
216	51
217	78
218	22
229	45
230	500
231	72
243	148
244	98
245	922
246	173
272	78
273	322
274	151
286	65
287	73
288	32
289	99
300	101
301	102
304	49
305	125
306	32
313	64
314	52
329	76
330	100
331	124
332	49
344	22
345	62
346	37
355	172
356	72
368	48
369	273
382	298
383	802
384	425
397	42
398	753
399	162
410	37
411	199
412	179
425	81
426	758
427	236
