Mass Spectrum: Dithiocarbamic acid, N,N-dimethyl-, S-(1-piperidinyl) ester
Formula: C8H16N2S2
CAS: 66232-66-4
Molecular weight: 204
m/z	intensity
33	15
34	2
35	0
37	0
39	26
40	19
41	49
42	128
43	20
44	69
45	15
46	6
47	19
48	0
49	0
50	0
51	1
52	1
53	8
54	17
55	81
56	65
57	7
59	6
60	9
61	9
62	4
64	6
65	1
67	5
68	3
69	2
70	2
72	21
73	50
74	8
75	4
76	12
77	30
78	1
79	2
80	1
81	1
82	8
84	627
85	34
88	999
89	41
90	44
91	1
98	3
105	0
116	16
117	0
118	0
120	33
121	12
122	4
123	1
130	2
204	12
205	1
206	0
