Mass Spectrum: Pentanedioic acid, dibutyl ester
Formula: C13H24O4
CAS: 6624-57-3
Molecular weight: 244
m/z	intensity
41	131
42	70
43	201
44	20
51	20
53	20
55	121
56	90
57	131
58	20
60	20
61	20
67	20
68	30
69	30
70	30
71	30
73	50
74	20
77	20
78	20
81	20
82	20
83	30
84	20
85	161
86	100
87	121
91	20
95	50
97	30
98	30
99	30
101	90
109	20
111	20
112	20
114	80
115	999
116	60
117	20
135	20
141	20
142	141
143	20
147	20
149	20
155	20
157	20
169	20
170	60
171	444
172	60
186	20
189	30
