Mass Spectrum: 1,5-Pentanediol dibenzoate
Formula: C19H20O4
CAS: 6624-73-3
Molecular weight: 312
m/z	intensity
26	4
27	19
29	22
39	22
40	5
41	57
42	7
43	8
44	9
50	22
51	95
52	7
53	10
54	7
55	24
56	5
57	10
65	5
67	95
68	699
69	57
71	5
75	5
76	19
77	369
78	37
79	22
82	14
85	56
104	6
105	999
106	86
107	7
120	7
122	25
123	91
124	7
148	17
149	5
162	14
190	136
191	21
207	4
227	2
312	5
313	2
