Mass Spectrum: 2-Heptanone, 7,7-dichloro-
Formula: C7H12Cl2O
CAS: 66241-43-8
Molecular weight: 182
m/z	intensity
36	20
38	20
39	40
40	10
41	70
42	30
43	999
44	30
45	10
49	10
51	10
53	20
55	20
58	650
59	20
63	20
67	50
68	10
71	40
75	30
77	10
83	10
89	10
95	10
103	20
105	10
110	10
111	10
131	10
