Mass Spectrum: Formaldehyde, phenyl(2-propenyl)hydrazone
Formula: C10H12N2
CAS: 66255-61-6
Molecular weight: 160
m/z	intensity
39	130
41	80
51	220
65	190
77	999
78	90
91	440
92	60
104	140
105	860
106	90
117	50
119	80
130	100
160	400
161	50
