Mass Spectrum: 4,6-Dimethyl-3,5-dithioxo-2,3,4,5-tetrahydro-1,2,4-triazine
Formula: C5H7N3S2
CAS: 6625-99-6
Molecular weight: 173
m/z	intensity
41	169
42	100
43	307
44	118
45	552
46	99
47	79
55	150
56	999
59	160
60	209
71	79
72	160
173	298
