Mass Spectrum: 4-Acetyl-1-hydroxy-2,2,5,5-tetramethyl-3-imidazoline
Formula: C9H16N2O2
CAS: 66250-76-8
Molecular weight: 184
m/z	intensity
30	21
31	5
32	60
38	5
39	75
40	26
41	218
42	338
43	355
44	50
51	3
52	9
53	11
54	28
55	12
56	57
57	8
58	159
59	11
66	6
67	6
68	98
69	999
70	82
71	10
73	5
74	114
75	4
77	4
79	3
80	11
81	5
82	26
83	38
84	25
85	18
86	10
93	2
94	15
95	19
96	64
97	5
98	21
99	16
100	13
108	6
109	49
110	135
111	104
112	11
120	4
123	7
124	3
125	42
126	8
127	37
128	3
132	2
134	2
136	7
137	34
138	178
139	16
141	6
151	7
152	24
153	155
154	116
155	11
163	2
166	4
167	48
168	27
169	83
170	10
183	7
184	39
185	5
