Mass Spectrum: Propanedioic acid, (phenylmethylene)-, dimethyl ester
Formula: C12H12O4
CAS: 6626-84-2
Molecular weight: 220
m/z	intensity
33	6
35	45
37	67
38	96
39	307
40	40
41	32
42	14
43	26
44	32
45	47
47	46
49	73
50	431
51	528
52	193
53	192
54	9
55	13
56	8
57	7
59	676
60	20
61	51
62	123
63	261
64	48
65	72
66	7
67	2
68	3
69	28
70	5
71	1
73	30
74	237
75	294
76	381
77	315
78	57
79	16
82	3
84	103
85	12
86	70
87	29
88	17
89	131
90	126
91	314
92	28
93	5
94	2
95	5
97	4
98	26
99	10
100	6
101	97
102	999
103	193
104	32
105	70
106	6
107	7
108	4
115	239
116	65
117	20
118	60
119	10
121	991
122	94
123	6
129	333
130	167
131	120
132	22
133	6
135	2
143	15
144	6
145	11
146	10
147	3
157	59
158	87
159	21
160	557
161	100
162	27
173	29
174	22
175	5
188	103
189	253
190	34
191	2
205	28
206	9
219	34
220	225
221	26
222	2
