Mass Spectrum: N-Dimethylaminomethylidene-4-sphingenine butaneboronate
Formula: C25H49BN2O2
CAS: 66268-58-4
Molecular weight: 420
m/z	intensity
44	180
57	150
83	180
97	278
98	999
125	239
138	179
141	208
153	237
181	227
182	525
363	547
420	39
