Mass Spectrum: 1-Methyl-d3-5-(3-pyridyl)pyrrolidin-2-one
Formula: C10H9D3N2O
CAS: 66269-66-7
Molecular weight: 179
m/z	intensity
18	3
26	3
27	9
28	10
29	4
30	2
31	1
32	1
33	1
37	2
38	6
39	19
40	5
41	39
42	7
43	5
44	5
45	69
46	4
47	6
49	1
50	16
51	41
52	19
53	7
54	4
55	10
56	6
57	2
58	8
60	1
61	6
62	6
63	20
64	10
65	22
66	9
67	7
68	3
69	5
70	6
71	25
72	42
73	29
74	5
75	5
76	8
77	15
78	45
79	34
80	21
81	6
82	2
83	2
84	1
85	1
86	1
87	1
88	1
89	9
90	8
91	35
92	18
93	10
94	8
95	4
96	3
97	3
98	5
99	2
100	13
101	999
102	56
103	6
104	21
105	17
106	9
107	13
108	2
109	1
116	5
117	37
118	125
119	21
120	5
121	12
122	105
123	20
124	75
125	6
131	4
132	4
133	8
134	4
135	2
136	5
137	1
144	1
145	3
146	4
147	66
148	9
149	3
150	12
151	5
152	1
160	1
161	7
162	1
164	1
175	1
176	2
177	2
178	115
179	446
180	50
181	4
