Mass Spectrum: 4-(Bromomethyl)phenylacetic acid phenacyl ester
Formula: C17H15BrO3
CAS: 66270-97-1
Molecular weight: 346
m/z	intensity
17	1
18	4
26	1
27	7
28	4
36	1
38	2
39	18
40	1
41	4
42	2
43	3
44	4
50	17
51	72
52	15
53	3
55	1
57	2
62	3
63	10
64	3
65	22
66	2
69	1
71	1
74	4
75	5
76	12
77	250
78	69
79	7
80	10
81	4
82	9
83	1
89	5
90	2
91	62
92	5
97	1
101	1
102	11
103	60
104	245
105	999
106	76
107	5
118	4
119	3
120	3
131	532
132	65
133	5
136	2
149	2
163	1
165	1
166	1
182	1
183	41
184	5
185	39
186	3
209	2
210	91
211	11
212	89
213	9
267	174
268	32
269	4
346	11
347	2
348	11
349	2
