Mass Spectrum: 4(1H)-Pyrimidinone, 2-amino-6-hydroxy-5-methyl-
Formula: C5H7N3O2
CAS: 6627-65-2
Molecular weight: 141
m/z	intensity
41	79
42	276
43	999
44	204
45	28
51	38
52	83
53	170
54	100
55	282
56	93
58	18
64	4
68	25
69	186
70	90
71	214
72	75
80	48
82	31
83	118
84	77
86	303
98	122
112	261
113	397
114	18
140	143
141	933
142	75
