Mass Spectrum: 3H-Pyrazol-3-one, 2,4-dihydro-4,5-dimethyl-
Formula: C5H8N2O
CAS: 6628-22-4
Molecular weight: 112
m/z	intensity
39	150
41	100
42	320
43	70
52	70
53	90
54	90
55	150
56	10
68	100
69	30
83	50
96	330
97	20
111	980
112	999
113	79
