Mass Spectrum: Cyclohexanol, 2-(2-ethyl-1-hydroxy-1-hexyl)-
Formula: C14H28O2
CAS: 6628-39-3
Molecular weight: 228
m/z	intensity
26	2
27	95
28	2
29	221
30	5
31	52
38	0
39	49
40	9
41	337
42	31
43	189
44	37
45	21
46	0
47	10
50	0
51	2
52	1
53	38
54	86
55	309
56	37
57	224
58	15
59	72
60	2
61	0
63	0
64	0
65	9
66	17
67	522
68	40
69	297
70	42
71	35
72	14
73	23
74	1
75	0
77	27
78	4
79	43
80	18
81	145
82	440
83	150
84	20
85	22
86	8
87	32
88	2
91	26
92	5
93	385
94	39
95	39
96	8
97	24
98	42
99	44
100	5
101	0
105	1
106	0
107	9
108	2
109	12
110	28
111	999
112	81
113	13
114	1
115	2
116	0
117	1
119	0
120	0
121	11
122	2
123	9
124	5
125	3
126	3
127	26
128	39
129	837
130	61
131	10
132	0
133	0
135	16
136	5
137	5
138	0
139	2
140	2
141	1
142	0
143	0
145	1
147	35
148	3
149	11
150	8
151	2
153	5
154	53
155	7
156	0
162	0
163	18
164	2
166	0
167	2
168	0
172	0
177	0
179	1
180	0
181	3
182	0
183	0
191	1
192	26
193	12
194	1
195	0
198	0
209	1
210	27
211	6
212	0
227	0
229	0
