Mass Spectrum: Furazanamine, 4-nitro-
Formula: C2H2N4O3
CAS: 66328-69-6
Molecular weight: 130
m/z	intensity
33	13
34	7
38	10
40	129
41	35
42	74
43	15
44	15
46	89
48	2
50	3
53	698
54	999
55	25
57	4
58	16
66	1
67	1
69	11
70	1
74	1
76	6
82	1
84	658
85	12
103	1
104	3
130	442
131	16
132	1
