Mass Spectrum: Tricyclo[4.2.1.1(2,5)]decan-3-ol
Formula: C10H16O
CAS: 66337-85-7
Molecular weight: 152
m/z	intensity
26	6
27	123
28	25
29	108
30	3
31	25
38	7
39	191
40	36
41	291
42	33
43	67
44	17
45	14
50	11
51	43
52	24
53	103
54	123
55	343
56	45
57	96
58	12
59	3
60	2
61	2
62	3
63	14
64	5
65	68
66	385
67	387
68	64
69	63
70	86
71	23
72	3
73	1
74	3
75	6
76	5
77	157
78	141
79	672
80	999
81	219
82	38
83	72
84	22
85	15
86	3
87	2
88	1
89	4
90	2
91	195
92	177
93	290
94	49
95	94
96	31
97	21
98	12
99	3
100	0
101	1
102	2
103	9
104	7
105	156
106	140
107	93
108	366
109	78
110	29
111	23
112	3
113	1
115	5
116	1
117	8
118	4
119	133
120	14
121	63
122	9
123	111
124	26
125	4
126	1
127	2
128	2
129	2
131	3
132	4
133	10
134	532
135	60
136	4
137	6
138	1
150	2
151	4
152	116
153	14
154	2
