Mass Spectrum: 2-[2-Aminothiazol-4-yl]-2-hydroxyiminoacetic acid
Formula: C5H5N3O3S
CAS: 66338-96-3
Molecular weight: 187
m/z	intensity
41	39
42	54
43	267
44	850
45	449
46	68
47	34
49	23
51	32
52	28
53	94
54	68
55	50
56	120
57	226
58	42
59	35
60	202
61	29
62	4
66	32
67	15
68	17
69	76
70	82
71	105
72	64
73	79
74	52
79	30
80	54
81	32
82	164
83	447
84	103
85	39
86	13
97	33
98	274
99	69
100	38
101	4
110	8
125	999
126	512
127	89
128	21
141	23
142	39
143	300
144	43
145	14
187	94
188	17
