Mass Spectrum: 4-(3-Fluoroanilino)-4-oxobut-2-enoic acid
Formula: C10H8FNO3
CAS: 6633-31-4
Molecular weight: 209
m/z	intensity
33	17
34	1
36	1
37	11
38	27
39	34
40	28
41	14
42	7
43	25
44	44
45	137
46	11
47	1
48	0
49	2
50	21
51	17
52	24
53	56
54	64
55	51
56	17
57	87
58	6
59	2
60	2
61	8
62	21
63	40
64	27
65	11
66	2
68	17
69	16
70	15
71	82
72	9
73	6
74	12
75	52
76	6
77	3
78	1
79	1
80	11
81	36
82	58
83	131
84	85
85	8
86	1
87	1
88	3
89	11
90	7
91	14
92	4
93	6
94	12
95	76
99	362
100	15
101	5
105	1
106	3
107	7
108	17
109	41
111	999
112	59
113	2
116	1
117	0
120	4
121	15
122	6
123	1
126	0
132	0
134	5
135	18
136	10
137	10
138	6
139	0
146	17
147	10
148	2
149	1
150	1
163	55
164	75
165	9
166	0
174	0
181	1
190	5
191	31
192	5
193	0
207	2
209	170
210	16
211	3
