Mass Spectrum: Methanone, [4-(methylamino)-3-nitrophenyl]phenyl-
Formula: C14H12N2O3
CAS: 66353-71-7
Molecular weight: 256
m/z	intensity
57	40
63	60
69	30
77	570
83	40
91	50
97	29
104	220
105	999
118	30
133	90
139	20
152	60
161	160
166	30
179	270
180	120
181	50
193	20
209	50
223	20
256	180
257	50
