Mass Spectrum: 2-(4-Bromobutyl)-furan
Formula: C8H11BrO
CAS: 66356-49-8
Molecular weight: 202
m/z	intensity
53	480
55	190
57	300
81	999
95	160
109	60
123	180
202	210
204	240
