Mass Spectrum: 2-Pyridinecarboxylic acid, 6-chloro-, methyl ester
Formula: C7H6ClNO2
CAS: 6636-55-1
Molecular weight: 171
m/z	intensity
49	65
50	300
51	175
52	70
53	40
59	135
60	40
61	55
62	55
63	30
64	40
65	75
75	115
76	664
77	150
78	150
85	105
86	40
87	35
92	50
111	30
112	674
113	999
114	285
115	365
116	25
140	115
141	240
142	55
143	75
171	95
172	25
173	30
