Mass Spectrum: 9-Azabicyclo[6.1.0]nonan-9-amine, cis-
Formula: C8H16N2
CAS: 66387-77-7
Molecular weight: 140
m/z	intensity
41	999
58	570
67	520
68	220
69	220
70	90
71	330
72	120
77	60
79	100
80	170
81	200
82	160
83	160
84	100
85	50
94	110
95	120
96	60
97	170
111	50
112	110
124	110
140	160
