Mass Spectrum: N,N'-Bis[(5Z)-cyclooctenylidene]-hydrazine
Formula: C16H24N2
CAS: 66387-84-6
Molecular weight: 244
m/z	intensity
51	70
52	60
53	210
54	999
55	150
65	110
66	180
67	600
68	150
77	160
78	70
79	870
80	770
81	130
91	130
93	330
94	100
95	130
108	110
122	210
123	150
244	170
