Mass Spectrum: 1H-Isoindole-1,3(2H)-dione, 2-(9-azabicyclo[6.1.0]non-9-yl)-, cis-
Formula: C16H18N2O2
CAS: 66387-74-4
Molecular weight: 270
m/z	intensity
74	100
75	150
76	999
77	170
79	140
80	280
81	190
82	280
90	90
93	90
94	230
95	650
96	80
102	60
103	80
104	900
105	300
108	220
109	140
122	70
123	90
124	240
130	270
131	70
132	60
147	80
148	700
149	70
162	560
163	170
175	80
188	160
201	330
202	70
241	50
270	50
