Mass Spectrum: 9-Azabicyclo[6.1.0]nonane, 9,9'-azobis-, [1.alpha.,8.alpha.,9[E(1'R*,8'S*)]]-
Formula: C16H28N4
CAS: 66387-81-3
Molecular weight: 276
m/z	intensity
41	999
54	770
55	790
67	790
68	420
69	220
79	60
80	80
81	450
82	710
83	80
94	50
95	170
96	60
97	60
109	80
110	190
124	150
248	20
276	10
