Mass Spectrum: 1H-Pyrrole, 1-(trifluoroacetyl)-
Formula: C6H4F3NO
CAS: 66399-79-9
Molecular weight: 163
m/z	intensity
25	1
26	3
27	3
28	23
29	1
31	9
33	6
36	4
37	45
38	100
39	273
40	54
41	5
46	1
47	5
48	1
49	6
50	28
51	10
52	8
53	12
54	1
55	2
56	4
57	18
58	4
61	1
62	4
63	12
64	42
65	58
66	632
67	37
68	5
69	100
70	5
71	1
72	1
74	1
75	5
76	2
77	1
78	3
79	1
80	1
81	2
82	1
84	8
85	1
86	1
87	3
88	5
89	3
90	1
91	1
92	2
93	50
94	999
95	60
96	4
97	1
99	4
100	3
101	1
106	1
107	7
108	1
112	5
114	20
115	3
116	1
126	1
127	2
134	1
135	2
143	1
163	513
164	37
165	2
