Mass Spectrum: Propyl 2-methylvalerate
Formula: C9H18O2
CAS: 6639-14-1
Molecular weight: 158
m/z	intensity
15	6
26	11
27	191
28	54
29	150
30	9
31	47
32	1
37	2
38	6
39	120
40	22
41	373
42	185
43	967
44	45
45	48
46	1
47	7
50	2
51	6
52	2
53	19
54	6
55	157
56	90
57	56
58	9
59	72
60	9
61	7
63	1
65	2
66	1
67	6
68	3
69	56
70	62
71	960
72	59
73	92
74	981
75	180
76	9
77	2
78	1
81	4
82	1
83	8
84	1
85	7
86	10
87	274
88	22
89	24
90	1
97	5
98	8
99	883
100	60
101	55
102	4
103	4
113	1
114	1
115	18
116	497
117	999
118	68
119	6
123	1
129	57
130	10
131	1
143	5
144	1
158	2
159	1
