Mass Spectrum: 1,3,4-Oxadiazole, 2-(acetyloxy)-2,5-dihydro-2,5,5-trimethyl-
Formula: C7H12N2O3
CAS: 66398-57-0
Molecular weight: 172
m/z	intensity
37	2
38	6
39	73
40	11
41	89
42	47
43	999
44	41
45	205
46	4
47	1
49	6
51	2
55	3
56	1
57	10
58	95
59	23
60	6
61	7
69	2
72	36
73	1
84	13
85	57
86	7
87	24
88	0
99	3
100	88
101	34
102	2
103	0
114	0
144	4
145	0
