Mass Spectrum: Urs-20(30)-ene-3,16-dione, (18.alpha.,19.alpha.)-
Formula: C30H46O2
CAS: 66394-64-7
Molecular weight: 438
m/z	intensity
108	999
109	690
135	450
149	220
150	420
173	90
175	160
185	50
187	50
189	100
205	100
219	90
245	50
271	20
273	20
289	30
381	30
395	370
420	20
423	50
438	310
