Mass Spectrum: Diazene, (4-iodophenyl)phenyl-
Formula: C12H9IN2
CAS: 6639-27-6
Molecular weight: 308
m/z	intensity
38	60
39	70
50	400
51	400
63	110
64	80
74	100
75	120
76	660
77	999
78	90
105	320
127	50
151	70
152	190
153	40
203	660
204	80
231	300
232	20
280	30
308	930
309	140
