Mass Spectrum: Cyclopenta[c]pyran-1,3-dione, 4,4a,5,6-tetrahydro-4,7-dimethyl-
Formula: C10H12O3
CAS: 66407-26-9
Molecular weight: 180
m/z	intensity
51	100
65	110
77	390
78	100
79	500
80	110
91	370
93	999
94	100
107	220
108	250
121	440
136	470
152	30
180	80
