Mass Spectrum: o-Toluic acid, cyclopentyl ester
Formula: C13H16O2
CAS: 6640-83-1
Molecular weight: 204
m/z	intensity
25	3
26	15
27	62
28	5
29	30
39	145
40	44
41	191
42	29
43	29
44	3
45	5
50	20
51	52
52	25
53	34
55	17
56	3
57	6
59	8
60	4
61	6
62	17
63	57
64	19
65	161
66	21
67	88
68	78
69	65
70	6
71	4
72	2
73	2
74	5
75	6
76	4
77	40
78	10
79	25
80	5
83	4
84	7
85	22
86	2
87	6
88	5
89	48
90	101
91	492
92	42
93	27
94	5
95	3
98	4
99	4
101	4
102	24
104	4
105	21
106	3
107	3
108	2
113	4
114	3
117	11
118	315
119	999
120	90
121	4
122	4
124	3
126	2
128	3
129	3
131	3
133	7
134	5
135	27
136	528
137	136
138	9
203	2
204	17
205	3
