Mass Spectrum: 2-Pyrrolidinemethanamine, N-methyl-, (S)-
Formula: C6H14N2
CAS: 66411-54-9
Molecular weight: 114
m/z	intensity
15	50
27	110
28	380
29	50
30	100
39	130
41	240
42	310
43	230
44	370
54	60
55	170
57	130
68	110
70	999
71	50
83	100
