Mass Spectrum: m-Toluic acid, cyclohexyl ester
Formula: C14H18O2
CAS: 6641-66-3
Molecular weight: 218
m/z	intensity
25	3
26	17
27	86
28	12
29	72
30	4
39	174
40	21
41	223
42	31
43	39
44	5
49	5
50	26
51	47
52	15
53	36
54	112
55	168
56	21
57	16
58	3
59	6
61	5
62	15
63	54
64	18
65	174
66	16
67	240
68	18
69	18
70	19
71	7
73	4
74	4
75	4
76	4
77	25
78	7
79	28
80	7
81	46
82	237
83	50
84	7
85	3
86	3
87	3
88	4
89	43
90	41
91	493
92	57
93	67
94	7
95	5
96	4
97	4
98	6
99	66
100	5
103	2
105	13
106	2
107	4
108	2
109	2
110	4
112	13
113	4
115	2
117	5
118	20
119	999
120	116
121	11
129	3
131	4
133	2
134	13
135	21
136	128
137	831
138	79
139	6
141	2
218	2
