Mass Spectrum: m-Toluic acid, 2-phenylethyl ester
Formula: C16H16O2
CAS: 6641-74-3
Molecular weight: 240
m/z	intensity
25	2
26	9
27	29
28	2
29	15
30	2
39	97
40	11
41	34
42	4
43	10
44	1
50	29
51	65
52	20
53	11
55	8
56	2
57	4
59	3
61	3
62	12
63	49
64	17
65	171
66	11
67	2
69	6
70	15
71	7
74	9
75	9
76	7
77	67
78	40
79	34
80	2
83	4
84	8
86	3
87	3
88	3
89	39
90	37
91	500
92	46
97	2
101	3
102	12
103	47
104	999
105	171
106	8
107	3
112	2
118	17
119	682
120	71
121	6
130	6
133	3
134	2
135	9
136	36
137	10
