Mass Spectrum: (E)-2,2-Dimethylcyclohexanone oxime
Formula: C8H15NO
CAS: 66417-98-9
Molecular weight: 141
m/z	intensity
51	33
52	19
53	105
54	79
55	496
56	74
57	38
58	167
60	14
61	1
62	3
63	8
64	3
65	24
66	21
67	300
70	83
71	9
72	12
73	105
74	15
75	2
76	3
77	19
78	4
79	29
81	122
82	171
83	126
84	25
85	9
86	111
87	14
88	1
91	26
93	18
94	35
95	65
96	66
98	145
99	47
100	321
101	18
102	15
103	1
104	5
105	7
107	25
109	427
110	34
112	50
113	79
114	6
115	1
116	1
124	999
126	387
127	32
128	2
140	17
141	243
142	24
143	2
