Mass Spectrum: .beta.-D-Glucopyranoside, methyl 2-(chloromercurio)-2-deoxy-, triacetate
Formula: C13H19ClHgO8
CAS: 6641-37-8
Molecular weight: 540
m/z	intensity
43	999
69	46
73	23
81	79
85	28
87	185
97	49
98	11
99	114
100	317
101	21
102	14
103	24
109	15
110	26
111	73
115	79
116	32
127	8
128	11
129	158
139	33
140	6
141	88
142	123
143	18
145	33
152	29
153	14
157	23
158	11
159	4
169	6
171	68
183	88
184	26
198	77
201	15
211	3
213	11
229	6
233	4
243	36
244	7
259	21
291	7
303	11
319	28
332	12
343	6
357	4
361	3
375	13
385	1
403	1
417	34
463	1
477	2
505	0
536	5
