Mass Spectrum: Thiazolo[4,5-d]thiazole, 2,5-diphenyl-
Formula: C16H10N2S2
CAS: 6641-96-9
Molecular weight: 294
m/z	intensity
34	0
36	0
37	2
38	5
39	24
40	5
41	1
42	0
43	1
44	5
45	6
46	0
47	0
48	0
50	39
51	44
52	15
53	2
55	0
56	0
57	1
58	0
59	0
61	3
62	11
63	22
64	7
65	1
67	0
68	0
69	10
70	14
71	2
72	1
73	1
74	8
75	26
76	120
77	51
78	3
81	1
82	2
83	0
84	0
85	1
86	3
88	999
89	41
90	87
91	3
92	2
93	7
94	4
95	2
96	1
97	0
98	0
99	1
100	1
101	1
102	13
103	209
104	18
105	2
106	1
107	1
108	1
109	0
110	0
111	0
112	0
114	4
115	1
116	0
117	0
118	0
119	4
120	3
121	22
122	2
123	1
124	0
125	1
132	0
133	1
134	0
135	0
136	0
139	0
143	0
144	0
145	1
146	40
147	57
148	11
149	1
150	0
156	0
159	0
160	0
163	0
164	0
165	0
171	1
172	0
173	0
176	0
177	0
178	0
180	0
189	0
190	1
191	4
192	0
193	0
216	0
224	0
235	0
249	0
261	0
283	0
292	0
293	4
294	893
295	175
296	97
297	16
298	4
