Mass Spectrum: 2,7-Dimethyl-5-methoxy-3(6H)-2H-1,2,4-triazepine
Formula: C7H11N3O2
CAS: 66425-08-9
Molecular weight: 169
m/z	intensity
40	238
41	999
42	565
43	695
54	315
55	266
56	505
58	219
69	893
70	775
72	78
83	576
84	139
99	139
111	98
112	100
113	796
124	30
126	70
128	208
129	30
138	237
139	50
169	149
