Mass Spectrum: 2,4,7-Trimethyl-3-thioxo-5-methylthio-3,4(2H)-dihydro-1,2,4-triazepine
Formula: C8H13N3S2
CAS: 66425-10-3
Molecular weight: 215
m/z	intensity
40	50
41	87
42	459
43	98
45	405
46	110
47	127
52	101
53	89
54	158
57	50
58	139
59	89
61	98
69	78
72	230
73	197
74	118
80	110
81	100
83	129
84	137
86	119
88	999
95	100
109	108
127	368
141	49
142	716
143	49
215	349
