Mass Spectrum: 2,7-Dimethyl-3-oxo-5-thioxo-3,4,5,6(2H)-tetrahydro-1,2,4-triazepine
Formula: C6H9N3OS
CAS: 66425-04-5
Molecular weight: 171
m/z	intensity
40	51
41	181
42	200
43	999
45	98
55	171
56	61
60	109
69	338
84	50
86	69
97	79
114	80
128	218
129	889
130	50
131	50
171	570
