Mass Spectrum: 5-Methyl-2-nitrobenzyl alcohol
Formula: C8H9NO3
CAS: 66424-92-8
Molecular weight: 167
m/z	intensity
15	3
16	1
17	4
18	14
19	2
20	1
25	1
26	7
27	55
28	27
29	44
30	66
31	27
35	1
36	2
37	11
38	33
39	231
40	32
41	97
42	11
43	24
44	8
45	10
46	10
47	9
48	1
49	6
50	87
51	204
52	89
53	125
54	20
55	30
56	3
57	1
59	3
60	3
61	21
62	70
63	202
64	59
65	560
66	241
67	55
68	8
69	7
70	1
71	1
73	4
74	36
75	32
76	41
77	577
78	360
79	158
80	24
81	22
82	4
83	1
84	1
85	7
86	19
87	18
88	5
89	177
90	79
91	854
92	215
93	533
94	117
95	10
96	1
97	1
98	3
99	1
100	1
101	3
102	23
103	35
104	999
105	121
106	165
107	107
108	15
109	6
110	1
116	2
117	3
118	52
119	162
120	52
121	42
122	23
123	2
124	1
128	1
130	6
131	3
132	7
133	19
134	34
135	90
136	9
137	4
138	4
143	1
146	1
147	1
148	21
149	26
150	3
151	2
161	1
164	1
165	1
166	2
