Mass Spectrum: 2,7-Dimethyl-3,5-dioxo-4,6(2H)-dihydro-1,2,4-triazepine
Formula: C6H9N3O2
CAS: 66425-05-6
Molecular weight: 155
m/z	intensity
40	218
41	952
42	546
43	884
44	79
54	162
55	78
69	842
70	399
83	40
84	40
112	401
113	999
155	430
