Mass Spectrum: Tranexamic acid, 2TMS derivative
Formula: C14H31NO2Si2
CAS: 66434-48-8
Molecular weight: 301
m/z	intensity
45	60
46	3
47	2
59	55
60	3
61	2
73	289
74	26
75	94
76	9
77	3
78	2
102	999
103	101
104	38
105	2
110	43
111	9
147	70
148	12
149	5
197	31
198	5
214	19
215	2
258	9
272	38
273	9
274	3
286	72
287	19
288	7
289	2
301	26
302	7
303	3
304	2
