Mass Spectrum: 4,4-Ethylenedioxy-1-pentylamine
Formula: C7H15NO2
CAS: 66442-97-5
Molecular weight: 145
m/z	intensity
41	95
42	83
43	765
44	39
45	136
46	4
47	2
49	11
50	2
51	6
52	4
53	17
54	17
55	63
56	41
57	64
58	18
59	36
60	3
61	2
63	0
65	6
66	4
67	22
68	22
69	53
70	17
71	25
72	13
73	18
74	2
77	3
78	2
79	4
80	7
81	8
82	22
83	23
84	69
85	87
86	50
87	999
88	41
89	6
91	2
92	1
93	4
94	11
95	6
96	10
97	10
98	20
99	43
100	12
101	3
102	4
103	5
104	0
105	0
106	2
107	3
108	5
109	4
110	8
111	5
112	12
113	33
114	5
126	4
127	5
128	17
129	18
130	11
131	2
143	3
144	5
145	12
146	3
147	1
