Mass Spectrum: 5,5-Dimethylhydantoin, 2TMS derivative
Formula: C11H24N2O2Si2
CAS: 66448-28-0
Molecular weight: 272
m/z	intensity
12	3
13	3
14	11
15	130
16	8
17	25
18	84
26	10
27	41
28	91
29	89
30	14
31	25
32	2
38	5
39	67
40	23
41	145
42	390
43	215
44	94
45	375
46	27
47	59
48	3
50	9
51	4
52	7
53	10
54	13
55	33
56	67
57	124
58	87
59	110
60	17
61	39
62	3
63	3
66	13
67	8
68	14
69	63
70	161
71	30
72	215
73	961
74	103
75	216
76	16
77	11
78	3
81	2
82	6
83	10
84	86
85	40
86	54
87	16
88	4
89	6
91	3
92	3
93	9
96	2
97	3
98	11
99	45
100	266
101	49
102	17
103	5
105	3
107	82
111	2
112	4
114	999
115	129
116	64
117	10
118	3
121	7
126	4
127	7
128	15
129	68
130	12
131	170
132	27
133	18
134	3
140	5
141	16
142	120
143	17
144	6
147	86
148	14
149	7
155	2
156	5
157	37
158	17
159	3
160	2
167	6
169	4
170	2
171	3
172	5
173	2
174	8
175	1
183	4
185	161
186	22
187	8
188	7
189	1
199	5
200	13
201	2
214	3
229	1
241	1
255	4
257	176
258	40
259	15
260	2
271	10
272	21
273	5
274	2
