Mass Spectrum: 1H-Imidazol, 1-methyl-2-amino-
Formula: C4H7N3
CAS: 6646-51-1
Molecular weight: 97
m/z	intensity
39	71
40	64
41	148
42	579
43	298
44	42
45	5
46	2
48	30
51	32
52	45
53	96
54	144
55	381
56	71
57	30
63	5
65	6
67	43
68	12
69	266
70	22
73	9
74	3
77	10
78	3
79	12
80	11
82	216
83	13
91	2
94	5
96	719
97	999
98	43
99	3
