Mass Spectrum: 4-Hexenoic acid, 2,2,5-trimethyl-, methyl ester
Formula: C10H18O2
CAS: 66478-19-1
Molecular weight: 170
m/z	intensity
26	6
27	67
28	16
29	58
30	3
31	4
37	2
38	7
39	107
40	19
41	541
42	49
43	69
44	3
45	9
49	2
50	18
51	30
52	23
53	67
54	14
55	154
56	35
57	36
59	35
61	3
62	2
63	8
65	14
66	5
67	72
68	39
69	999
70	120
71	19
73	33
74	27
75	4
76	6
77	48
78	107
79	29
80	7
81	32
82	11
83	27
84	5
85	8
86	3
87	151
88	8
91	21
92	3
93	9
94	4
95	96
96	16
97	6
99	15
100	2
101	21
102	717
103	48
104	5
105	6
107	3
109	17
110	92
111	232
112	22
113	3
114	3
115	39
116	3
121	2
123	21
125	2
127	4
128	2
129	1
137	3
138	4
139	13
140	2
141	3
142	1
155	5
170	167
171	18
172	2
