Mass Spectrum: 1,3-Benzenedimethanamine, 2-bromo-N,N,N',N'-tetramethyl-
Formula: C12H19BrN2
CAS: 66479-06-9
Molecular weight: 270
m/z	intensity
25	0
26	0
27	11
28	13
29	19
30	59
31	1
39	20
41	9
42	140
43	21
44	57
45	1
46	1
51	13
52	2
53	5
54	2
55	1
56	10
57	36
58	999
59	50
60	0
63	43
64	7
65	20
66	3
67	1
68	2
70	0
71	0
77	81
78	71
79	32
80	3
81	2
82	0
83	0
89	67
90	33
91	32
92	3
93	1
94	9
95	1
103	105
104	284
105	179
106	16
107	3
108	1
113	2
114	1
115	8
116	14
117	33
118	12
119	1
120	2
121	0
126	0
127	0
128	1
130	30
131	40
132	49
133	12
134	8
135	8
136	1
139	2
140	0
141	0
142	1
143	2
144	63
145	641
146	119
147	187
148	98
149	148
150	13
155	0
156	0
157	1
158	1
159	4
160	2
161	1
168	3
169	7
170	4
171	16
172	1
173	5
174	2
175	3
176	0
182	145
183	188
184	144
185	191
186	20
187	1
188	0
189	29
190	106
191	51
192	7
193	0
194	1
195	0
196	3
197	3
198	5
199	4
200	3
201	0
208	0
209	0
210	4
211	5
212	23
213	5
214	26
215	2
216	2
217	0
219	0
222	0
223	0
224	2
225	91
226	76
227	656
228	119
229	649
230	47
231	2
269	43
270	28
271	44
272	28
273	5
274	0
