Mass Spectrum: Phosphine, tris[bis(trifluoromethyl)methoxy]-
Formula: C9H3F18O3P
CAS: 66470-81-3
Molecular weight: 532
m/z	intensity
25	0
26	6
27	0
29	779
30	10
31	48
33	2
37	1
38	1
39	2
40	15
41	0
44	8
47	215
48	9
49	9
50	29
51	266
52	26
53	3
54	0
55	1
56	3
57	1
58	0
60	3
61	2
62	1
63	31
64	3
65	0
66	2
67	79
69	999
70	6
71	0
73	0
74	1
75	4
76	0
78	9
79	185
80	11
81	6
82	132
83	5
84	0
85	16
86	0
87	1
88	0
89	53
90	0
91	9
92	0
93	14
94	0
95	3
96	0
97	27
98	2
99	6
100	5
101	526
102	10
103	1
105	12
106	0
107	110
109	6
110	7
111	5
112	6
113	385
114	10
115	0
117	48
118	1
119	8
120	1
121	0
123	1
124	0
125	0
126	3
127	0
128	4
129	768
130	23
131	15
132	603
133	26
135	5
139	0
140	0
141	1
142	0
143	2
144	0
145	13
146	0
147	6
148	8
149	3
150	1
151	448
152	12
159	11
160	0
161	1
163	1
164	0
165	1
167	26
169	0
173	0
175	1
177	2
178	0
179	1
181	9
182	0
183	2
187	2
191	48
192	3
193	3
194	0
195	5
197	16
198	0
199	63
200	3
205	0
207	8
208	1
209	6
210	0
211	52
212	1
213	214
214	10
215	0
217	555
218	19
219	0
226	0
227	16
228	0
229	41
230	0
231	17
232	0
233	57
234	2
235	13
236	0
239	0
245	5
246	1
249	163
250	7
253	2
255	13
257	42
258	4
259	0
261	5
262	0
263	4
267	0
275	1
277	379
278	26
279	3
280	6
281	0
283	0
284	0
296	1
299	21
300	1
313	0
315	3
341	2
342	0
343	0
345	31
346	1
347	2
361	59
362	6
363	0
365	365
366	27
367	1
381	7
382	1
383	0
384	0
385	0
397	1
400	2
401	9
402	0
403	0
405	1
425	5
426	0
428	2
479	0
493	0
509	0
513	33
514	4
515	0
528	1
529	1
532	128
533	15
534	1
