Mass Spectrum: 1,5:2,4-Dimethanopentalene-3,6-diol, octahydro-
Formula: C10H14O2
CAS: 66486-73-5
Molecular weight: 166
m/z	intensity
25	4
26	18
27	243
28	45
29	237
30	13
31	156
37	7
39	334
40	75
41	387
42	106
43	236
44	52
45	53
46	5
47	17
48	3
49	5
50	46
51	163
52	68
53	238
54	82
55	283
56	45
57	466
58	46
59	15
60	52
61	16
62	17
63	55
64	24
65	188
66	524
67	286
68	96
69	139
70	448
71	93
72	21
73	92
74	19
75	28
76	12
77	510
78	306
79	999
80	457
81	472
82	337
83	432
84	109
85	38
86	193
87	36
88	13
89	24
90	17
91	770
92	608
93	237
94	443
95	378
96	652
97	117
98	32
99	27
100	46
101	12
102	15
103	65
104	345
105	238
106	161
107	229
108	78
109	235
110	207
111	139
112	180
113	20
114	12
115	131
116	51
119	522
120	412
121	146
122	180
123	57
124	40
125	139
126	15
127	15
129	127
130	552
131	107
132	32
133	198
134	28
135	93
136	28
137	77
138	127
139	17
140	10
141	7
143	5
145	19
146	10
147	100
148	527
149	97
150	63
151	15
152	5
153	6
164	9
165	15
166	109
167	18
168	1
