Mass Spectrum: Cyclopropanecarboxylic acid, 1-[[(1,1-dimethylethoxy)carbonyl]amino]-, methyl ester
Formula: C10H17NO4
CAS: 66494-26-6
Molecular weight: 215
m/z	intensity
26	6
27	36
29	131
30	9
31	16
38	4
39	51
40	15
41	247
42	32
43	35
44	32
45	9
47	4
48	3
50	3
51	4
52	5
53	11
54	98
55	147
56	122
57	999
58	71
59	125
60	8
67	2
68	7
69	4
70	4
71	7
72	2
73	9
81	3
82	65
83	343
84	21
91	2
98	10
99	8
100	197
101	11
102	3
109	8
110	15
111	2
112	2
113	3
114	121
115	176
116	24
117	4
120	3
124	3
127	32
128	83
129	7
141	6
142	104
143	9
145	5
146	4
156	9
159	159
160	19
161	3
