Mass Spectrum: (1-Ethylvinyloxy)trimethylsilane
Formula: C7H16OSi
CAS: 6651-40-7
Molecular weight: 144
m/z	intensity
26	1
27	16
29	15
30	3
31	2
33	0
34	0
37	0
38	0
39	9
40	13
41	8
42	6
43	29
44	22
45	42
46	3
47	28
48	1
49	1
50	1
51	2
52	0
53	4
54	1
55	6
56	3
57	16
58	7
59	18
60	4
61	18
62	1
63	0
64	0
65	0
66	0
67	1
68	0
69	2
70	2
72	25
73	191
74	16
75	999
76	35
77	17
78	0
79	0
81	0
82	0
83	1
84	0
85	10
86	9
87	2
88	0
89	0
91	0
92	0
93	0
95	0
96	0
97	0
98	0
99	7
100	1
101	7
102	0
103	0
104	0
105	0
106	0
107	0
108	0
110	1
111	0
112	0
113	5
114	0
115	4
116	2
117	1
118	0
119	0
127	1
128	0
129	257
130	27
131	10
132	0
133	0
141	0
142	0
144	125
145	12
146	5
