Mass Spectrum: (2R,5S)-2,6,10,10-Tetramethyl-1-oxaspiro[4.5]decan-7-one
Formula: C13H22O2
CAS: 66514-42-9
Molecular weight: 210
m/z	intensity
27	15
28	15
29	23
39	43
40	8
41	140
42	38
43	96
48	8
51	8
53	53
54	12
55	186
56	217
57	116
58	6
65	16
66	8
67	66
68	26
69	98
70	214
71	41
72	6
77	22
79	37
80	8
81	62
83	130
84	24
85	75
86	6
93	24
94	12
95	30
96	34
97	86
98	12
99	98
101	12
107	19
109	28
111	147
112	999
113	82
114	6
123	30
124	9
125	50
126	450
127	55
128	10
135	17
137	15
138	17
139	547
140	54
141	26
152	5
153	46
154	703
155	76
156	8
167	33
168	18
181	7
195	60
196	9
209	8
210	76
211	11
