Mass Spectrum: 2,3,7,8-Tetrakis[(trimethylsilyl)oxy]chromeno[5,4,3-cde]chromene-5,10-dione
Formula: C26H38O8Si4
CAS: 6651-66-7
Molecular weight: 590
m/z	intensity
15	1
29	1
43	3
44	4
45	68
46	4
47	3
55	1
57	2
58	2
59	5
60	1
61	1
69	1
70	1
71	1
73	999
74	87
75	42
76	2
77	1
83	1
85	1
87	1
95	1
97	1
99	1
103	1
105	1
107	1
109	1
113	1
115	2
116	1
117	1
119	1
121	1
125	1
127	1
128	1
129	1
131	4
132	1
133	8
134	1
135	1
137	1
139	1
141	1
142	1
143	1
144	1
145	1
147	14
148	2
149	2
150	1
151	1
152	1
153	1
154	1
155	1
157	1
159	1
163	1
164	1
165	3
166	1
167	1
168	1
169	1
170	1
171	1
173	1
176	1
177	1
178	1
179	2
180	1
181	1
183	1
184	1
185	1
186	1
187	1
189	1
190	1
191	2
192	1
193	3
194	1
195	1
197	1
198	1
199	1
200	1
201	1
202	1
203	1
205	1
206	1
207	3
208	1
209	1
210	1
211	1
212	1
213	1
214	1
216	1
217	1
219	1
221	1
222	1
223	1
224	1
225	1
226	1
227	1
228	1
229	1
230	1
231	1
233	1
235	1
236	1
237	1
239	1
240	1
241	1
242	1
243	1
244	1
245	1
247	1
249	1
251	1
252	1
253	2
254	1
255	1
256	1
257	1
258	1
259	1
265	1
266	1
267	1
268	1
269	1
270	1
271	1
272	1
273	1
274	1
275	1
277	1
279	1
280	1
281	1
282	1
283	1
284	1
285	1
286	1
287	1
288	1
289	1
290	1
291	1
293	1
294	1
295	1
296	1
297	1
298	1
299	2
300	1
301	1
302	1
303	1
304	1
305	1
307	1
309	1
310	1
311	2
312	1
313	2
314	1
315	2
316	1
317	1
318	1
321	1
323	1
324	1
325	1
326	1
327	3
328	2
329	2
330	1
331	1
332	1
337	1
338	1
339	3
340	1
341	3
342	1
343	2
344	1
345	1
346	1
347	1
351	1
352	1
353	2
354	2
355	3
356	2
357	4
358	1
359	1
360	1
361	1
367	1
368	1
369	5
370	2
371	3
372	1
373	1
374	1
375	1
381	1
382	1
383	3
384	7
385	4
386	2
387	2
388	1
389	1
390	1
395	1
396	1
397	2
398	2
399	5
400	3
401	4
402	1
403	1
404	1
409	1
410	1
411	2
412	2
413	3
414	8
415	5
416	3
417	1
418	1
425	1
426	1
427	4
428	2
429	7
430	3
431	3
432	1
433	1
439	1
440	1
441	2
442	1
443	3
444	2
445	2
446	1
447	1
455	1
456	1
457	5
458	2
459	3
460	1
461	1
469	1
470	1
471	2
472	2
473	1
474	1
475	1
483	1
484	1
485	12
486	5
487	73
488	28
489	14
490	4
491	1
499	2
500	2
501	5
502	19
503	8
504	4
505	1
506	1
515	9
516	4
517	11
518	4
519	2
520	1
529	1
530	1
531	2
532	2
533	1
534	1
545	2
546	1
547	3
548	1
549	1
559	1
560	1
561	1
562	1
563	1
573	7
574	4
575	431
576	206
577	112
578	36
579	10
580	2
581	1
588	1
589	11
590	548
591	270
592	143
593	45
594	13
595	3
596	1
