Mass Spectrum: Ethanone, 2-(1-methylethoxy)-1,2-diphenyl-
Formula: C17H18O2
CAS: 6652-28-4
Molecular weight: 254
m/z	intensity
15	2
18	1
27	24
28	4
29	4
38	2
39	15
40	2
41	29
42	5
43	61
44	2
50	11
51	53
52	7
53	2
62	2
63	7
64	2
65	2
74	2
75	3
76	6
77	158
78	20
79	172
80	11
82	1
83	1
88	1
89	11
90	13
91	5
102	1
105	169
106	19
107	999
108	77
109	5
115	2
118	3
120	2
128	1
133	2
139	1
148	3
149	556
150	61
151	5
152	9
153	1
163	1
164	2
165	17
166	5
167	14
168	2
178	4
179	1
194	1
195	9
196	2
254	2
