Mass Spectrum: 2-Propen-1-one, 3-(dimethylamino)-1-(2-pyridinyl)-
Formula: C10H12N2O
CAS: 66521-54-8
Molecular weight: 176
m/z	intensity
40	107
42	310
43	91
44	55
50	16
51	87
52	46
53	21
54	19
55	220
57	9
65	8
68	25
69	21
70	80
71	9
77	9
78	150
79	34
80	13
82	6
84	40
93	67
98	999
99	17
104	4
105	50
106	56
132	38
133	522
134	42
159	9
160	6
161	65
176	185
177	14
