Mass Spectrum: 2,2,4-Trimethyl-3-phenyl-hex-5-en-3-ol
Formula: C15H22O
CAS: 66534-36-9
Molecular weight: 218
m/z	intensity
27	13
28	5
29	30
39	18
40	2
41	43
42	4
43	69
44	2
50	3
51	18
52	2
53	7
55	33
56	7
57	127
58	6
63	2
65	5
67	2
69	5
71	2
76	3
77	96
78	12
79	16
85	119
86	7
91	38
92	4
103	5
104	2
105	999
106	55
107	5
115	12
116	2
117	7
119	17
120	2
121	2
127	4
128	11
129	7
131	6
133	4
141	2
143	5
144	1
145	1
146	4
147	2
148	4
161	93
162	13
163	208
164	24
165	1
185	1
203	0
218	0
