Mass Spectrum: 1,2-Naphthalenedione, 4-chloro-
Formula: C10H5ClO2
CAS: 6655-90-9
Molecular weight: 192
m/z	intensity
65	51
74	310
75	570
76	663
99	60
101	599
102	157
104	434
105	61
129	999
130	159
135	58
136	124
138	56
157	430
158	103
164	170
166	72
191	60
192	774
193	105
194	323
