Mass Spectrum: Benzenesulfonic acid, 3-nitro-, hydrazide
Formula: C6H7N3O4S
CAS: 6655-77-2
Molecular weight: 217
m/z	intensity
31	150
50	624
75	350
76	999
77	300
122	75
123	949
124	200
138	5
139	17
153	624
170	50
186	20
187	50
188	15
217	25
