Mass Spectrum: 2-Thiabicyclo[3.2.0]hepta-3,6-diene-4,6,7-tricarboxylic acid, 3-amino-, 4-ethyl 6,7-dimethyl ester
Formula: C13H15NO6S
CAS: 66599-28-8
Molecular weight: 313
m/z	intensity
59	120
97	110
125	999
171	950
208	140
209	150
222	80
223	60
240	60
254	100
255	80
268	50
281	280
313	240
