Mass Spectrum: 2-Propenoic acid, 3-(2,2-dimethyl-1,3-dioxolan-4-yl)-, methyl ester, (s)-
Formula: C9H14O4
CAS: 66601-82-9
Molecular weight: 186
m/z	intensity
25	1
26	21
27	109
28	8
29	46
30	5
31	35
33	2
36	0
37	5
38	20
39	204
40	32
41	239
42	190
43	999
44	23
45	13
49	0
50	6
51	13
52	18
53	49
54	10
55	64
56	9
57	17
58	40
59	97
60	3
61	8
62	0
63	0
65	1
66	3
67	6
68	37
69	89
70	60
71	19
72	270
73	76
74	4
75	0
77	1
79	7
80	4
81	24
82	6
83	133
84	15
85	14
86	1
87	16
88	1
91	0
93	0
95	12
96	16
97	498
98	297
99	35
100	13
101	7
109	2
111	18
112	3
113	10
114	1
115	5
116	0
121	0
125	0
126	1
127	17
128	11
129	170
130	11
131	1
139	16
140	1
154	1
155	32
156	28
157	2
171	330
172	26
173	4
186	2
