Mass Spectrum: Carbamic acid, [1-(hydroxymethyl)-2-phenylethyl]-, 1,1-dimethylethyl ester, (s)-
Formula: C14H21NO3
CAS: 66605-57-0
Molecular weight: 251
m/z	intensity
26	1
27	28
28	21
29	128
30	21
31	55
37	1
38	3
39	47
40	7
41	204
42	35
43	27
44	4
45	2
49	0
50	4
51	18
52	4
53	5
54	1
55	10
56	14
57	999
58	32
59	91
60	585
61	13
62	3
63	12
64	1
65	55
66	3
67	0
68	0
69	1
71	0
72	0
73	6
74	5
76	1
77	26
78	11
79	9
80	1
81	0
85	1
86	7
87	3
88	2
89	10
90	7
91	280
92	111
93	11
94	0
97	0
98	0
99	1
100	0
101	0
102	0
103	20
104	164
105	20
106	3
107	2
108	0
109	0
115	7
116	7
117	27
118	16
119	10
120	155
121	12
122	0
127	0
128	7
129	1
130	1
131	1
132	1
133	1
134	19
135	1
136	0
143	0
144	0
145	1
146	1
149	0
150	1
152	0
158	0
159	0
160	184
161	16
162	1
163	3
164	42
165	4
166	1
172	1
174	2
175	0
176	0
177	1
178	44
179	3
192	0
193	0
195	29
196	3
197	0
199	0
204	0
218	0
220	11
221	1
222	1
228	0
233	0
234	0
235	0
251	8
252	1
