Mass Spectrum: 4-n-Butylthiane
Formula: C9H18S
CAS: 66625-24-9
Molecular weight: 158
m/z	intensity
53	120
54	140
55	870
56	170
57	90
58	20
59	140
60	180
61	170
67	460
68	210
69	500
70	120
73	120
74	110
81	340
82	360
83	110
87	360
88	50
95	410
96	110
97	80
98	60
99	30
101	450
102	110
103	40
109	20
115	999
116	90
117	50
129	800
130	70
131	35
143	320
144	30
145	15
157	50
158	855
159	93
160	42
161	4
