Mass Spectrum: Benzenesulfonyl-dichloromethanesulfonyl chloride
Formula: C7H5Cl3O4S2
CAS: 66629-56-9
Molecular weight: 322
m/z	intensity
48	69
51	130
64	240
77	999
111	19
113	10
117	59
119	50
121	10
141	428
142	29
143	10
