Mass Spectrum: Chloromethanesulfonyl-dichloromethanesulfonyl chloride
Formula: C2H2Cl4O4S2
CAS: 66629-57-0
Molecular weight: 294
m/z	intensity
48	59
49	91
51	20
64	566
82	101
83	171
84	69
85	100
97	50
99	19
117	999
119	951
121	299
123	29
