Mass Spectrum: 4-Cyclohexylthiane
Formula: C11H20S
CAS: 66625-26-1
Molecular weight: 184
m/z	intensity
38	20
39	415
40	67
41	915
42	59
43	86
44	53
45	227
46	92
47	197
48	7
49	10
50	26
51	66
52	33
53	216
54	146
55	999
56	75
57	21
58	28
59	124
60	96
61	202
62	19
63	28
64	12
65	94
66	68
67	689
68	341
69	158
70	12
71	32
72	17
73	79
74	75
75	33
76	8
77	98
78	35
79	185
80	72
81	465
82	160
83	398
84	36
85	86
86	53
87	483
88	49
89	44
90	3
91	66
92	7
93	111
94	61
95	176
96	53
97	38
98	3
99	128
100	180
101	244
102	153
103	53
104	25
105	12
107	55
108	55
109	178
110	23
113	225
114	74
115	91
116	21
117	33
121	79
122	58
123	56
124	96
125	12
127	42
128	68
129	44
134	10
135	58
136	68
137	54
140	10
141	306
142	42
143	19
150	16
151	3
155	70
156	116
157	12
169	49
183	340
184	904
185	129
186	47
187	5
