Mass Spectrum: Cyclodecene, 1-methyl-
Formula: C11H20
CAS: 66633-38-3
Molecular weight: 152
m/z	intensity
26	6
27	179
28	21
29	187
30	3
31	3
34	0
37	0
38	4
39	240
40	56
41	546
42	68
43	81
44	3
45	2
46	0
50	7
51	29
52	18
53	183
54	238
55	607
56	319
57	135
58	6
59	2
62	0
63	5
64	2
65	46
66	72
67	871
68	624
69	308
70	75
71	10
72	0
74	0
75	0
76	0
77	62
78	14
79	146
80	48
81	999
82	473
83	94
84	12
85	3
89	0
91	34
92	4
93	44
94	27
95	689
96	452
97	66
98	9
99	0
103	1
104	0
105	5
106	1
107	9
108	16
109	303
110	188
111	40
112	3
115	1
116	0
117	0
119	0
121	3
122	2
123	70
124	64
125	7
126	0
128	0
135	4
136	11
137	188
138	21
139	1
150	0
151	0
152	318
153	44
154	3
