Mass Spectrum: 1-Cycloocten-5-yne, (Z)-
Formula: C8H10
CAS: 66633-23-6
Molecular weight: 106
m/z	intensity
27	240
39	470
41	110
50	180
51	300
52	850
53	140
54	300
63	100
65	210
66	120
67	70
77	210
78	400
79	290
91	999
92	100
103	110
105	300
106	640
107	70
