Mass Spectrum: Hexane, 1-(methoxymethoxy)-
Formula: C8H18O2
CAS: 66675-06-7
Molecular weight: 146
m/z	intensity
39	39
41	130
42	52
43	302
44	31
45	999
46	28
47	16
54	13
55	86
56	152
57	56
58	11
61	45
67	27
68	15
69	46
70	37
71	44
75	227
76	11
77	13
81	36
82	77
83	72
84	83
85	126
86	35
96	57
99	10
101	16
