Mass Spectrum: Histamine, N-benzoyl-2-trifluoromethyl-
Formula: C13H12F3N3O
CAS: 66675-24-9
Molecular weight: 283
m/z	intensity
41	3
42	1
43	2
44	3
45	3
49	5
50	3
51	60
52	1
53	0
54	0
55	0
56	0
57	0
63	0
65	2
66	0
67	1
68	1
69	8
70	1
71	1
72	0
73	1
74	6
75	10
76	32
77	366
78	37
79	22
80	3
81	12
82	3
83	3
84	1
85	1
86	0
87	0
88	1
89	6
90	5
91	6
92	2
93	2
94	9
95	3
96	3
97	1
98	0
99	4
100	1
102	80
103	13
104	0
105	999
106	100
107	9
108	3
109	2
110	1
111	2
112	1
113	0
114	1
115	13
116	7
117	3
118	1
119	2
120	2
121	1
122	810
123	80
124	6
125	0
127	0
128	1
129	32
130	29
131	10
132	3
133	1
134	34
135	6
136	6
137	0
140	0
141	5
142	17
143	43
144	3
145	0
146	0
149	73
150	646
151	37
152	1
155	0
156	0
157	0
158	1
159	1
161	33
162	431
163	66
164	3
168	0
171	2
176	1
177	6
178	42
179	3
181	1
184	1
187	0
198	19
199	3
204	0
206	2
214	1
215	0
217	0
224	0
225	0
226	0
237	0
239	1
244	2
245	0
254	0
264	8
265	2
266	13
267	2
280	0
281	0
282	1
283	242
284	102
285	32
286	2
