Mass Spectrum: Propene, 1,2-dibenzoylamino-
Formula: C17H16N2O2
CAS: 66675-19-2
Molecular weight: 280
m/z	intensity
41	0
42	32
43	8
44	8
50	18
51	92
52	9
54	2
63	2
70	0
71	0
72	61
73	2
74	6
75	8
76	27
77	492
78	36
79	2
98	1
103	3
104	17
105	999
106	79
107	4
118	1
122	3
130	4
132	1
146	4
147	9
157	8
158	74
159	63
160	8
174	0
175	46
176	6
263	3
279	0
280	394
281	76
282	9
