Mass Spectrum: 2,4-Diamino-5-chloro-6-[[p-chlorobenzyl]sulfonyl]quinazoline
Formula: C15H12Cl2N4O2S
CAS: 66682-77-7
Molecular weight: 382
m/z	intensity
43	136
44	27
45	5
48	6
49	7
51	34
52	12
53	6
61	10
63	144
64	22
65	34
68	9
69	4
72	4
73	37
74	26
75	25
76	18
77	12
84	8
86	15
88	43
89	176
90	52
92	4
97	13
99	52
101	22
103	22
104	11
105	7
109	6
111	6
112	3
114	8
115	21
116	22
123	6
124	74
125	999
127	352
130	41
131	7
139	20
141	10
149	3
150	4
151	8
152	7
157	24
158	18
164	10
166	27
167	13
168	5
171	5
176	3
177	4
193	50
195	22
199	4
205	13
207	24
209	33
211	14
224	4
241	32
243	14
247	7
248	17
283	27
284	5
285	11
317	9
318	206
319	34
320	99
321	13
322	13
382	61
383	17
384	55
385	14
386	13
