Mass Spectrum: Cyclopropanecarboxylic acid, 3-formyl-2,2-dimethyl-, ethyl ester
Formula: C9H14O3
CAS: 66692-75-9
Molecular weight: 170
m/z	intensity
25	1
26	38
27	360
28	23
29	671
30	18
31	34
35	1
36	2
37	6
38	22
39	325
40	72
41	902
42	83
43	450
44	18
45	40
47	5
49	1
50	23
51	59
52	28
53	205
54	40
55	162
56	43
57	51
58	7
59	101
60	7
61	1
62	3
63	10
64	1
65	45
66	27
67	445
68	111
69	517
70	45
71	65
72	8
73	34
74	2
75	1
77	37
78	8
79	87
80	28
81	130
82	51
83	172
84	40
85	59
86	5
87	24
88	2
89	1
93	6
94	5
95	414
96	171
97	999
98	205
99	81
100	37
101	17
102	1
103	0
104	0
105	1
106	1
107	3
108	0
109	22
110	2
111	24
112	20
113	434
114	111
115	12
116	0
117	9
119	8
121	3
122	2
123	6
124	74
125	291
126	26
127	81
128	24
129	6
130	0
131	0
139	1
140	6
141	517
142	150
143	13
144	1
145	0
152	15
153	2
154	0
155	16
156	2
157	0
169	2
170	12
171	1
172	0
