Mass Spectrum: 3-(4'-Tolyl)-5-phenyl-4-nitroisoxazole
Formula: C16H12N2O3
CAS: 66692-94-2
Molecular weight: 280
m/z	intensity
76	79
77	728
78	111
89	597
90	114
91	352
105	999
106	133
107	76
116	930
117	82
132	128
133	832
134	78
159	180
203	52
280	981
281	181
