Mass Spectrum: 5H-Inden-5-one, octahydro-7a-methyl-3-(2-methylpropyl)-
Formula: C14H24O
CAS: 66708-27-8
Molecular weight: 208
m/z	intensity
41	500
43	220
53	200
55	480
67	460
68	110
69	280
71	110
77	110
79	200
81	410
83	630
91	130
93	170
95	480
96	630
97	460
98	200
108	410
109	370
110	150
111	999
112	300
123	110
137	110
148	110
151	170
165	170
166	570
193	260
208	500
