Mass Spectrum: 1-Propanone, 2-methyl-1-(octahydro-3a-methyl-1H-inden-1-yl)-
Formula: C14H24O
CAS: 66708-25-6
Molecular weight: 208
m/z	intensity
26	2
27	109
28	16
29	72
39	98
40	18
41	313
42	24
43	341
44	9
48	4
50	2
51	13
52	9
53	78
54	29
55	206
56	32
57	22
65	32
66	18
67	234
68	33
69	99
70	12
71	57
72	2
73	6
77	69
78	17
79	113
80	37
81	999
82	73
83	28
86	2
91	53
92	7
93	57
94	20
95	640
96	55
97	6
98	2
99	7
101	10
105	15
107	21
108	7
109	19
110	12
112	5
113	5
114	2
115	2
119	6
121	28
122	19
123	6
125	6
133	3
135	11
136	5
137	922
138	92
139	4
147	14
149	10
151	7
152	2
163	4
164	5
165	531
166	60
167	12
177	2
179	2
193	6
208	119
209	19
210	2
