Mass Spectrum: 3-Ethyl-4-methyl-3-heptanol
Formula: C10H22O
CAS: 66719-39-9
Molecular weight: 158
m/z	intensity
15	1
18	2
26	2
27	54
28	8
29	120
30	3
31	36
38	1
39	31
40	5
41	167
42	15
43	243
44	9
45	439
46	9
47	1
49	4
51	3
52	1
53	17
54	2
55	150
56	13
57	173
58	7
59	198
60	6
65	3
66	1
67	11
68	2
69	327
70	24
71	77
72	5
73	134
74	6
77	2
79	2
81	3
83	10
84	3
85	71
86	52
87	999
88	59
89	3
95	1
97	9
98	9
99	8
100	1
101	2
111	24
112	3
113	1
115	3
129	432
130	38
131	2
140	1
141	1
143	2
