Mass Spectrum: Bisoprolol
Formula: C18H31NO4
CAS: 66722-44-9
Molecular weight: 325
m/z	intensity
26	0
27	7
30	142
31	2
39	2
41	11
42	6
43	44
44	0
45	9
46	0
47	0
50	0
51	1
52	1
53	0
56	30
57	5
58	12
59	3
60	6
61	0
63	0
65	2
66	0
70	9
71	5
72	999
73	52
74	12
75	5
76	0
77	9
78	9
79	2
80	0
82	2
84	2
86	5
87	1
88	0
89	14
90	8
91	10
92	1
93	0
94	1
95	1
96	0
98	7
99	0
100	75
101	5
102	33
103	7
104	2
105	1
106	5
107	56
108	4
109	0
114	12
115	1
116	115
117	8
118	0
119	3
120	0
121	2
122	2
123	12
124	1
126	0
129	0
130	0
131	0
132	0
133	2
134	1
135	1
136	0
137	0
138	0
143	0
144	0
145	4
146	1
147	1
148	1
149	8
150	1
151	0
152	0
157	0
160	0
161	0
162	2
163	1
164	0
165	4
166	0
167	4
168	0
175	0
176	0
179	0
181	0
185	0
188	0
195	0
198	0
204	0
206	3
207	0
208	0
209	2
210	1
213	0
218	0
221	0
222	5
223	1
229	0
236	0
249	1
250	0
252	0
267	0
280	0
281	44
282	7
283	1
284	0
299	1
307	0
310	3
311	0
312	0
324	1
325	2
326	2
327	0
