Mass Spectrum: 2-[2-[6-Chloro-2-phenyl-4H-1-benzothiopyran-4-ylideneamino]ethyl]-1-methylpyrrolidine
Formula: C22H23ClN2S
CAS: 66724-47-8
Molecular weight: 382
m/z	intensity
42	367
43	17
44	22
45	10
47	2
49	5
50	1
51	12
52	4
53	8
54	10
55	45
56	20
57	8
58	4
62	1
63	9
64	0
65	4
67	15
68	18
69	25
70	19
71	2
72	1
74	3
75	5
76	8
77	21
78	2
79	2
80	3
81	2
82	130
84	953
85	40
86	3
87	1
88	5
89	6
90	1
91	4
93	3
94	5
96	27
98	999
99	55
100	2
101	1
102	30
103	7
104	2
107	3
108	8
110	56
111	34
112	5
113	0
114	0
115	9
116	3
117	1
119	2
121	14
122	0
123	4
124	3
125	4
126	2
127	2
128	5
129	0
132	0
133	7
134	6
135	1
136	1
137	1
138	1
139	3
140	1
141	0
142	3
143	0
144	0
145	3
146	1
147	1
149	1
150	4
151	3
152	2
155	1
157	0
161	0
162	0
163	4
164	0
165	5
168	3
169	3
170	3
171	1
172	2
173	3
174	2
175	1
176	12
177	3
178	2
179	1
180	0
181	0
182	1
185	1
187	3
188	2
189	12
190	5
191	11
192	4
194	1
195	1
199	2
201	2
202	3
203	4
204	3
206	2
207	2
208	8
209	2
210	2
211	1
212	0
213	0
214	3
215	0
216	4
217	4
219	13
220	8
221	77
222	17
223	7
224	1
225	4
227	1
229	0
231	0
232	0
233	3
234	7
235	15
236	3
237	0
238	2
240	1
242	0
244	6
245	0
246	5
247	3
248	20
249	35
250	37
251	8
252	3
253	1
255	32
256	10
257	19
258	5
259	5
260	3
261	1
262	4
263	1
268	0
269	2
270	6
271	6
272	11
273	4
274	4
282	3
283	6
284	455
285	158
286	187
287	48
288	12
289	2
296	3
298	9
299	2
300	3
312	1
326	8
327	1
328	3
367	3
369	1
380	0
381	6
382	12
383	5
384	4
385	1
