Mass Spectrum: 1,4,10,13-Tetraoxa-7,16-diaza-cyclooctadecane-7,16-dicarboxylic acid diethyl ester
Formula: C18H34N2O8
CAS: 66721-60-6
Molecular weight: 406
m/z	intensity
50	4
54	29
55	347
56	557
57	118
58	232
59	49
60	3
67	10
68	31
69	34
70	419
71	60
72	149
73	71
74	55
75	4
76	3
82	32
83	7
84	57
85	42
86	185
87	95
88	218
89	18
90	7
97	4
98	41
99	20
100	289
101	47
102	239
103	18
104	3
111	4
112	54
113	11
114	532
115	144
116	999
117	66
118	48
119	3
120	2
125	2
126	45
127	5
128	103
129	224
130	526
131	39
132	29
133	3
134	3
140	10
141	106
142	138
143	140
144	342
145	27
146	141
147	16
148	15
149	4
155	12
156	106
157	94
158	312
159	61
160	298
161	29
162	2
169	6
170	30
171	14
172	157
173	74
174	36
175	7
176	9
184	42
185	34
186	47
187	23
188	78
189	11
190	163
191	14
192	9
193	1
200	4
201	22
202	62
203	72
204	181
205	22
206	2
207	1
215	4
216	107
217	18
218	6
219	2
228	2
229	53
230	29
231	14
232	4
245	38
246	12
247	5
248	3
257	4
258	2
259	128
260	17
261	7
271	12
272	3
273	10
274	3
286	2
287	62
288	10
289	6
290	2
305	30
306	3
316	3
317	64
318	21
319	40
320	6
321	1
329	2
330	3
331	141
332	28
333	142
334	22
335	3
344	10
345	21
346	5
347	3
360	1
361	25
362	4
405	3
406	227
407	40
408	16
409	1
