Mass Spectrum: 3-[6-Chloro-2-phenyl-4H-1-benzothiopyran-4-ylideneamino]quinuclidine
Formula: C22H21ClN2S
CAS: 66724-44-5
Molecular weight: 380
m/z	intensity
41	410
42	729
43	230
44	226
45	122
49	10
50	165
51	224
52	109
53	134
54	105
55	143
56	115
57	78
58	177
62	76
63	150
65	102
67	108
68	202
69	235
70	91
71	39
73	20
74	60
75	77
76	32
77	258
78	53
79	58
80	94
81	35
82	413
83	186
84	21
86	13
87	41
88	12
89	87
90	11
91	141
93	76
94	103
96	242
97	37
98	54
101	12
102	72
103	32
104	51
106	46
107	46
109	999
110	156
111	10
113	10
115	59
116	11
117	26
118	42
119	11
120	11
121	127
122	32
123	129
124	23
125	34
126	25
127	23
129	12
132	22
133	46
134	68
135	11
137	44
139	33
142	42
144	9
145	49
149	21
150	23
151	41
152	10
157	9
163	44
165	47
168	30
169	41
171	26
174	10
175	10
176	80
178	43
181	99
183	35
187	29
188	44
189	60
190	42
196	10
198	9
199	10
208	43
210	14
212	20
214	10
219	56
220	40
221	384
222	101
223	67
225	17
232	10
234	52
235	38
242	13
244	122
246	69
247	21
248	46
249	46
255	127
256	24
257	272
258	135
259	95
260	63
261	19
262	11
263	16
270	76
271	106
272	129
273	65
274	63
275	10
283	9
284	125
285	70
286	66
287	44
296	59
297	21
298	36
310	59
323	11
351	37
380	120
381	36
382	40
383	9
