Mass Spectrum: 5.alpha.-Ergost-8(14)-ene
Formula: C28H48
CAS: 6673-69-4
Molecular weight: 384
m/z	intensity
40	80
41	620
42	80
43	999
44	80
45	10
51	10
52	10
53	70
54	20
55	710
56	60
57	290
58	10
65	30
67	360
68	50
69	260
70	30
71	190
72	10
73	10
77	70
78	20
79	210
80	30
81	350
82	50
83	260
84	30
85	50
91	310
92	60
93	250
94	50
95	330
96	50
97	140
98	10
103	20
104	20
105	340
106	70
107	260
108	70
109	510
110	50
111	30
115	30
116	20
117	90
118	30
119	190
120	80
121	220
122	100
123	120
124	10
125	10
127	10
128	30
129	50
130	20
131	110
132	30
133	220
134	100
135	300
136	60
137	20
141	10
142	10
143	20
144	10
145	100
146	40
147	310
148	70
149	180
150	30
157	10
159	40
160	30
161	130
162	30
163	30
171	10
173	20
174	10
175	60
176	10
177	10
187	20
189	20
190	10
201	20
202	10
203	40
215	240
216	50
217	40
218	10
229	20
230	50
231	100
232	20
233	20
257	120
258	20
259	20
261	20
275	10
276	10
277	10
369	110
370	30
384	280
385	80
386	10
