Mass Spectrum: Benzaldehyde, 4-(4-methylbenzyloxy)-
Formula: C15H14O2
CAS: 66742-58-3
Molecular weight: 226
m/z	intensity
37	0
38	7
39	61
40	9
41	4
42	0
43	0
44	0
50	10
51	46
52	7
53	13
54	0
55	0
61	1
62	8
63	56
64	40
65	140
66	8
73	0
74	6
75	4
76	9
77	115
78	44
79	114
80	5
82	0
83	1
84	0
85	0
86	0
87	0
89	8
90	3
91	19
92	23
93	11
94	0
95	0
98	1
99	1
101	0
102	10
103	80
104	51
105	999
106	175
107	7
112	0
113	0
114	0
115	0
119	2
120	5
121	7
122	1
124	0
128	0
129	0
135	0
149	0
150	0
152	0
153	0
154	2
155	0
164	0
165	1
225	0
226	24
227	1
