Mass Spectrum: 1,2-Ethanediol, 1,2-diphenyl-, dimethanesulfonate
Formula: C16H18O6S2
CAS: 66740-64-5
Molecular weight: 370
m/z	intensity
26	7
27	23
29	43
30	10
31	107
33	7
34	8
39	39
40	11
41	27
42	14
43	49
44	61
45	26
46	10
47	3
48	31
49	7
50	22
51	69
52	23
53	14
54	7
55	27
56	11
57	21
58	14
59	3
60	9
61	4
62	7
63	35
64	37
65	82
66	19
67	13
68	6
69	11
70	9
71	15
72	6
73	7
74	10
75	17
76	59
77	200
78	130
79	505
80	38
81	112
82	19
83	13
84	9
85	9
86	3
87	4
88	16
89	90
90	31
91	100
92	23
93	20
94	19
95	8
96	172
97	13
98	15
99	7
101	7
102	19
103	10
104	8
105	180
106	35
107	999
108	111
109	18
110	3
111	5
112	2
113	2
114	0
115	12
116	1
118	6
119	9
120	6
121	44
122	16
123	28
124	12
125	5
126	7
127	6
128	5
129	3
132	1
133	2
134	2
135	2
136	8
137	7
138	7
139	10
140	4
141	12
142	12
143	2
144	1
146	2
147	3
148	6
149	22
150	6
151	12
152	42
153	13
154	2
155	6
156	2
157	8
158	1
159	3
163	5
164	9
165	101
166	32
167	98
168	16
169	20
170	3
171	5
175	2
176	14
177	13
178	98
179	154
180	92
181	14
182	1
183	5
184	2
185	939
186	110
187	58
188	7
189	1
194	4
195	26
196	10
197	59
198	12
199	22
200	3
274	15
275	38
276	7
