Mass Spectrum: 2,2-Dianilinoacetophenone
Formula: C20H18N2O
CAS: 66749-88-0
Molecular weight: 302
m/z	intensity
38	80
39	230
40	70
41	70
47	170
50	210
51	540
52	100
54	60
63	90
64	50
65	290
66	420
67	60
74	50
75	50
76	120
77	999
78	270
92	200
93	960
94	160
104	990
105	500
106	70
197	50
209	580
210	140
