Mass Spectrum: 1-((1S,3aR,4S,7R,7aR)-3a,7a-Dimethyloctahydro-1H-4,7-methanoinden-1-yl)ethanone
Formula: C14H22O
CAS: 66748-84-3
Molecular weight: 206
m/z	intensity
26	2
27	41
29	35
30	1
38	5
39	147
40	29
41	275
42	21
43	810
44	13
50	10
51	49
52	25
53	142
54	21
55	236
56	13
58	8
59	15
62	3
63	22
64	9
65	142
66	59
67	523
68	64
69	103
70	15
71	119
72	7
77	255
78	66
79	403
80	83
81	266
82	33
83	51
84	501
85	88
86	7
89	8
90	4
91	343
92	83
93	385
94	685
95	999
96	84
97	73
98	11
103	33
104	23
105	221
106	92
107	426
108	66
109	138
110	44
111	49
113	9
115	36
116	17
117	62
118	66
119	131
120	112
121	526
122	504
123	693
124	79
125	17
128	17
129	18
130	12
131	71
132	46
133	180
134	46
135	139
136	53
137	304
138	148
139	181
140	16
142	5
143	9
144	5
145	35
146	63
147	100
148	196
149	45
150	16
151	20
152	8
157	8
159	17
160	13
161	178
162	31
163	424
164	65
165	47
173	33
174	10
175	17
176	30
177	22
178	22
179	4
188	26
189	21
190	6
191	93
192	15
204	72
205	22
206	199
207	32
