Mass Spectrum: l-Proline, 1-[(2,4,5-trichlorophenoxy)acetyl]-, methyl ester
Formula: C14H14Cl3NO4
CAS: 66789-88-6
Molecular weight: 365
m/z	intensity
55	91
58	56
59	37
68	56
69	999
70	349
83	235
84	44
88	72
114	40
128	113
142	31
170	40
179	31
181	34
209	47
211	40
279	53
281	44
306	125
308	119
310	40
330	314
331	56
332	213
333	31
334	66
365	1
