Mass Spectrum: 5-Aminoimidazolecarboxylic acid, 1-methyl-, t-butyl(ester)
Formula: C9H15N3O2
CAS: 66787-73-3
Molecular weight: 197
m/z	intensity
41	387
42	319
43	58
44	5
45	3
49	4
51	4
52	6
53	16
54	12
55	27
57	999
58	41
59	34
66	6
67	8
68	6
69	19
70	9
81	1
82	11
83	5
84	2
95	2
96	80
97	281
98	15
123	28
124	105
125	6
131	4
138	4
141	336
142	24
197	62
198	10
