Mass Spectrum: Sorbic acid, 3,5-dihydroxy-2-nitro-, .delta.-lactone
Formula: C6H5NO5
CAS: 668-43-9
Molecular weight: 171
m/z	intensity
14	20
15	70
25	20
26	70
27	160
28	120
29	80
30	120
31	20
36	20
37	60
38	50
39	240
40	100
41	140
42	130
43	999
44	210
45	50
46	20
50	20
51	30
52	20
53	90
54	90
55	60
56	20
58	20
59	20
64	20
67	50
68	60
69	430
70	210
71	20
73	30
82	20
83	20
84	100
85	210
86	10
96	30
98	40
110	20
111	30
112	50
125	30
126	20
127	220
128	20
138	20
139	20
143	20
155	60
171	70
172	10
