Mass Spectrum: 1,5-Naphthalenediol, decahydro-
Formula: C10H18O2
CAS: 66818-21-1
Molecular weight: 170
m/z	intensity
33	2
34	3
35	4
36	6
37	5
38	40
39	483
40	181
41	999
42	187
43	463
44	203
45	56
46	4
47	28
48	3
49	5
50	19
51	65
52	50
53	278
54	224
55	773
56	128
57	639
58	76
59	14
60	10
61	1
62	3
63	14
64	16
65	107
66	149
67	964
68	300
69	257
70	681
71	177
72	18
73	18
74	3
75	2
76	7
77	181
78	121
79	665
80	308
81	763
82	227
83	340
84	431
85	95
86	12
87	6
88	8
89	8
90	13
91	345
92	339
93	593
94	176
95	593
96	257
97	568
98	366
99	35
100	4
101	5
102	5
103	10
104	12
105	159
106	142
107	98
108	816
109	338
110	266
111	590
112	51
113	19
114	14
115	10
116	3
117	7
118	11
119	244
120	39
121	217
122	44
123	354
124	180
125	22
126	50
127	26
128	8
129	3
130	1
131	7
132	5
133	58
134	563
135	71
136	6
137	54
138	8
139	14
140	3
141	8
142	4
143	2
144	1
146	2
148	0
149	4
150	9
151	72
152	394
153	49
154	4
155	1
156	0
163	2
166	0
168	6
169	30
170	602
171	68
172	6
