Mass Spectrum: 7,8-Diazabicyclo[4.2.2]deca-2,4,7,9-tetraen-7-oxide
Formula: C8H8N2O
CAS: 66819-88-3
Molecular weight: 148
m/z	intensity
25	1
26	26
27	54
28	21
29	2
30	37
31	0
36	1
37	27
38	70
39	278
40	24
41	27
42	2
43	4
44	2
45	0
48	0
49	11
50	123
51	225
52	96
53	14
54	3
55	2
56	0
57	2
58	0
59	1
60	2
61	18
62	44
63	135
64	38
65	235
66	19
67	2
68	0
69	1
70	1
71	0
72	0
73	4
74	29
75	24
76	36
77	124
78	368
79	29
80	3
81	1
82	0
83	0
84	0
85	3
86	5
87	8
88	5
89	89
90	86
91	999
92	91
93	5
94	1
95	0
96	0
97	1
98	3
99	1
100	0
101	3
102	37
103	228
104	114
105	10
106	1
107	0
109	0
110	0
111	0
112	0
113	0
114	1
115	2
116	24
117	306
118	383
119	37
120	2
121	3
129	1
130	3
131	1
148	1
149	2
