Mass Spectrum: 4,4,8-Trimethyl-non-5-enal
Formula: C12H22O
CAS: 66822-00-2
Molecular weight: 182
m/z	intensity
41	290
43	190
44	29
53	40
54	10
55	259
56	49
57	99
65	19
66	10
67	139
68	50
69	999
70	99
73	29
77	30
79	69
80	9
81	249
82	89
83	120
84	30
85	9
91	30
93	90
94	10
95	120
96	70
97	90
98	40
99	39
105	19
107	49
108	40
109	70
110	9
111	40
112	9
121	40
122	10
123	39
124	29
125	70
126	139
127	10
135	30
139	9
149	40
164	29
167	10
