Mass Spectrum: N-Dimethylaminomethyl-tert.-butylphenylphosphine
Formula: C13H22NP
CAS: 66830-56-6
Molecular weight: 223
m/z	intensity
41	12
42	25
43	7
57	35
58	999
59	41
78	7
91	8
108	10
109	22
110	35
111	6
166	17
223	12
224	4
