Mass Spectrum: 2-Octanone, 1-phenyl-
Formula: C14H20O
CAS: 6683-96-1
Molecular weight: 204
m/z	intensity
14	70
16	44
17	207
26	3
27	92
29	112
39	97
40	44
41	194
42	53
43	999
44	367
45	23
50	15
51	37
52	16
53	18
55	96
56	33
57	207
60	89
61	18
62	15
63	26
64	29
65	111
66	14
67	15
68	29
69	44
70	28
71	28
73	47
77	30
78	22
83	18
85	347
86	29
87	22
89	29
90	26
91	350
92	141
95	44
105	52
112	22
113	805
114	88
