Mass Spectrum: 3.alpha.-Hydroxy-5.alpha.-pregnan-20-one-methyloxime
Formula: C22H37NO2
CAS: 66830-06-6
Molecular weight: 347
m/z	intensity
58	18
61	3
67	15
68	8
69	15
70	262
71	16
74	70
75	4
77	3
79	13
80	6
81	35
82	17
83	31
84	13
85	5
86	6
87	553
88	91
89	5
91	13
92	3
93	29
94	18
95	36
96	17
97	9
98	9
99	23
100	999
101	70
102	5
105	23
106	12
107	56
108	21
109	24
110	8
111	6
112	5
113	86
114	44
115	7
117	27
118	4
119	25
120	16
121	33
122	24
123	18
124	11
125	5
126	30
127	7
128	3
131	14
132	7
133	33
134	39
135	37
136	16
137	8
138	4
143	5
145	24
146	8
147	41
148	27
149	27
150	5
151	7
152	4
154	8
155	3
157	6
158	3
159	21
160	9
161	25
162	10
163	8
164	4
165	21
166	6
171	11
172	4
173	60
174	15
175	16
176	5
177	3
178	3
185	16
186	5
187	13
188	8
189	8
190	5
191	4
192	3
197	3
199	23
200	6
201	12
202	6
203	7
204	4
206	4
211	5
212	3
213	11
214	4
215	49
216	11
217	7
219	4
220	3
224	3
225	12
226	3
227	7
228	3
229	4
230	6
231	4
233	22
234	5
239	5
241	54
242	16
243	19
244	4
245	5
248	33
249	8
256	4
257	9
258	5
259	46
260	24
261	6
265	3
267	3
268	4
272	5
273	3
274	6
275	3
281	14
282	7
283	17
284	6
285	3
286	4
287	4
288	5
289	3
292	6
297	3
298	56
299	37
300	28
301	10
302	8
313	3
314	28
316	508
317	156
318	23
319	3
329	4
330	3
332	46
333	12
346	8
347	50
348	21
349	3
