Mass Spectrum: (3aR,4aS,5R,9aS)-5,8-Dimethyl-3-methylene-3a,4,4a,5,6,7,9,9a-octahydroazuleno[6,5-b]furan-2(3H)-one
Formula: C15H20O2
CAS: 66873-37-8
Molecular weight: 232
m/z	intensity
26	5
27	64
29	57
37	2
38	6
39	220
40	56
41	349
42	31
43	85
44	7
50	19
51	104
52	60
53	461
54	68
55	298
56	20
57	34
58	7
62	8
63	54
64	24
65	219
66	67
67	292
68	100
69	341
70	25
73	4
75	11
76	13
77	433
78	117
79	541
80	109
81	900
82	100
83	23
87	6
89	18
90	5
91	625
93	393
94	136
95	336
96	56
97	31
101	6
102	16
103	80
104	46
105	606
106	130
107	999
108	556
109	391
110	139
111	19
113	9
115	151
116	61
120	101
121	232
122	514
123	233
124	41
127	26
128	83
130	55
131	201
133	132
134	60
135	57
136	248
137	79
141	26
142	25
145	100
146	44
147	292
148	52
149	23
150	26
153	8
154	4
155	6
157	77
161	61
162	27
163	72
164	12
169	18
170	3
171	53
172	21
173	8
174	5
175	50
176	23
185	10
186	12
187	48
188	8
189	59
190	36
199	43
200	8
203	42
204	31
213	2
214	5
215	2
217	60
218	11
230	1
231	3
232	306
233	49
