Mass Spectrum: Azacyclododeca-1,5,9-triene, 3,3-dimethyl-12-(1-methylethyl)-
Formula: C16H27N
CAS: 66889-09-6
Molecular weight: 233
m/z	intensity
23	0
25	2
26	6
27	200
28	86
29	343
30	47
31	1
33	1
35	1
36	2
37	9
38	5
39	266
40	43
41	703
42	128
43	270
44	16
45	3
47	2
48	1
49	1
50	5
51	27
52	21
53	190
54	308
55	914
56	164
57	92
58	38
59	3
60	1
61	1
62	1
63	6
64	4
65	68
66	45
67	376
68	159
69	258
70	123
71	76
72	48
73	3
75	5
76	3
77	98
78	27
79	152
80	100
81	361
82	999
83	106
84	49
85	5
86	6
88	3
89	5
90	2
91	90
92	18
93	194
94	110
95	181
96	131
97	124
98	225
99	18
100	3
102	3
103	5
104	4
105	38
106	24
107	65
108	129
109	71
110	247
111	50
112	13
113	2
114	3
115	4
116	4
117	12
118	8
119	27
120	37
121	30
122	63
123	57
124	187
125	537
126	89
127	6
128	3
129	3
131	23
132	14
133	12
134	80
135	29
136	125
137	33
138	63
139	11
140	15
141	4
142	0
144	2
145	8
146	8
147	39
148	80
149	28
150	48
151	16
152	21
153	54
154	9
155	3
156	1
157	2
158	3
159	3
160	6
161	8
162	76
163	29
164	121
165	24
166	10
167	2
170	0
171	1
172	1
173	5
174	9
175	8
176	258
177	148
178	63
179	15
180	1
181	1
183	0
184	0
185	0
186	2
187	1
188	4
190	486
191	199
192	58
193	5
200	0
201	1
202	2
203	4
204	19
205	20
206	3
212	0
214	1
216	3
218	459
219	80
220	5
230	1
232	135
233	50
234	6
