Mass Spectrum: 4-Methyl-1-pentanol, TMS derivative
Formula: C9H22OSi
CAS: 6689-18-5
Molecular weight: 174
m/z	intensity
22	0
23	0
24	0
26	4
27	69
28	29
29	27
30	0
31	8
33	1
35	0
36	3
37	1
38	1
39	39
40	2
41	159
42	21
43	113
44	21
45	93
46	8
47	70
48	1
49	0
50	0
51	1
52	1
53	10
54	2
55	272
56	116
57	39
58	51
59	75
60	12
61	60
62	6
63	2
64	0
65	1
67	12
68	1
69	56
70	3
71	28
72	20
73	412
74	38
75	581
76	55
77	24
78	0
79	0
81	5
82	7
83	999
84	132
85	33
86	8
87	6
88	11
91	34
92	4
93	0
95	0
97	1
99	18
100	2
101	47
102	3
103	254
104	26
105	7
106	0
111	0
113	2
114	1
115	8
116	5
117	2
118	1
119	0
127	0
128	6
129	3
130	0
131	1
143	1
144	0
145	0
146	1
147	0
149	0
151	0
153	0
155	0
156	0
157	3
159	294
160	48
161	13
162	1
173	1
174	0
