Mass Spectrum: 1-Butanethiol, 4-(methylthio)-
Formula: C5H12S2
CAS: 66890-94-6
Molecular weight: 136
m/z	intensity
26	10
27	132
29	51
33	7
34	7
35	51
39	68
40	6
41	105
42	10
43	13
45	163
46	86
47	276
48	57
49	34
50	7
51	9
53	35
54	55
55	320
56	16
57	6
58	28
59	56
60	211
61	999
62	39
63	41
71	7
73	17
74	52
75	25
76	5
79	10
85	12
87	63
88	25
89	31
102	43
103	228
104	16
105	9
121	5
136	261
137	17
138	22
