Mass Spectrum: 2H-Pyran-5-carboxylic acid, 6-methyl-2-oxo-, methyl ester
Formula: C8H8O4
CAS: 669-40-9
Molecular weight: 168
m/z	intensity
25	17
26	113
27	237
28	92
29	115
30	18
31	36
33	27
36	22
37	218
38	393
39	366
40	53
41	65
42	119
43	999
44	84
45	60
49	42
50	124
51	160
52	131
53	333
54	93
55	64
56	9
57	20
59	247
60	21
61	66
62	79
63	85
64	26
65	78
66	388
67	120
68	136
69	174
70	23
71	10
73	8
77	15
78	8
79	27
80	169
81	77
82	72
83	165
84	19
85	480
86	28
93	77
94	261
95	568
96	78
97	119
98	271
99	21
107	10
108	353
109	490
110	98
111	39
112	20
121	11
122	8
123	53
124	8
125	478
126	67
127	13
136	460
137	623
138	95
139	24
140	939
141	145
142	18
153	591
154	50
155	7
168	760
169	158
170	18
