Mass Spectrum: 1-Phenyl-5-(cyclohexylamino)-1H-tetrazole
Formula: C13H17N5
CAS: 66907-71-9
Molecular weight: 243
m/z	intensity
27	341
29	295
30	111
37	28
38	87
39	574
40	89
41	984
42	134
43	187
50	126
51	433
52	111
53	167
54	184
55	999
56	213
57	26
62	25
63	133
64	246
65	479
66	51
67	108
68	36
69	67
70	18
75	7
76	39
77	885
78	134
79	79
80	20
81	131
82	51
83	282
84	20
86	87
90	26
91	623
92	275
93	120
94	11
95	13
96	30
97	20
98	97
103	18
104	361
105	157
106	154
107	13
109	7
110	59
111	11
117	177
118	489
119	121
123	16
124	18
130	30
131	39
132	61
133	820
134	141
135	11
144	24
145	51
146	200
147	23
158	111
159	154
160	67
161	61
162	21
168	26
169	8
170	10
171	11
172	482
173	97
174	13
175	7
186	109
187	41
188	7
194	13
198	7
199	4
200	15
201	5
214	193
215	84
243	200
244	34
