Mass Spectrum: 1,12-Dodecanedione, 1,12-diphenyl-
Formula: C24H30O2
CAS: 66901-95-9
Molecular weight: 350
m/z	intensity
26	0
27	7
29	10
39	6
40	5
41	34
42	4
43	11
44	0
45	0
50	4
51	32
52	2
53	3
54	1
55	37
56	2
57	3
59	0
63	0
65	2
66	0
67	9
68	0
69	28
70	1
71	1
73	1
74	0
75	1
76	8
77	291
78	51
79	9
80	1
81	4
82	0
83	4
84	0
85	2
87	9
88	0
89	0
90	0
91	25
92	5
93	1
94	0
95	2
96	1
97	2
99	1
101	0
102	0
103	5
104	5
105	999
106	74
107	14
108	12
109	13
110	2
111	5
112	0
113	0
115	3
116	1
117	11
118	9
119	4
120	532
121	59
122	4
123	0
124	0
125	0
127	0
128	1
129	5
130	6
131	8
132	5
133	105
134	21
135	2
141	0
142	1
143	8
144	17
145	32
146	12
147	9
148	6
149	1
151	0
153	0
154	0
155	0
156	0
157	7
158	3
159	5
160	1
161	3
162	3
163	0
167	0
169	1
170	1
171	3
172	0
173	3
174	0
175	3
176	1
181	1
182	0
183	1
184	0
185	0
187	6
188	1
189	3
190	0
195	0
199	0
200	0
201	1
202	0
203	1
204	0
210	1
211	0
212	3
213	9
214	1
215	0
217	1
218	7
219	1
223	0
226	1
227	0
229	1
230	56
231	270
232	46
233	4
235	0
236	1
237	0
240	1
241	0
244	13
245	3
246	0
314	13
315	3
316	0
332	8
333	2
334	0
349	2
350	51
351	15
352	2
