Mass Spectrum: 6-[N-Acetylamino]-7-methoxyquinoxaline
Formula: C11H11N3O2
CAS: 66910-61-0
Molecular weight: 217
m/z	intensity
42	136
43	999
44	31
45	8
47	8
48	2
49	37
50	120
51	79
52	123
53	56
54	40
55	7
56	1
57	2
58	1
59	0
61	26
62	56
63	61
64	58
65	36
66	45
67	36
68	16
69	5
70	1
71	1
73	3
74	7
75	27
76	83
77	105
78	106
79	42
80	17
81	9
82	1
84	11
86	13
87	7
88	19
89	25
90	61
91	35
92	27
93	9
94	2
97	0
99	2
100	2
101	3
102	11
103	27
104	49
105	81
106	23
107	2
113	0
115	8
116	17
117	87
118	47
119	18
121	8
127	1
128	2
129	6
130	30
131	1
132	500
133	47
134	2
142	2
143	13
144	53
145	52
146	48
147	12
148	1
156	22
157	19
158	12
160	385
161	39
162	2
172	15
174	49
175	796
176	89
177	6
178	0
186	7
187	4
188	4
189	1
200	1
201	2
202	2
217	526
218	70
219	5
