Mass Spectrum: 4,5-Methylenedioxy-2-bromo-N-[1-methyl-4-diethylaminobutyl]aniline
Formula: C16H25BrN2O2
CAS: 66910-73-4
Molecular weight: 356
m/z	intensity
41	175
42	198
43	119
44	130
45	21
46	4
47	6
48	5
49	20
50	20
51	28
52	29
53	27
54	19
55	40
56	98
57	47
58	314
59	15
60	5
61	16
62	12
63	16
64	11
65	22
66	6
67	14
68	15
69	40
70	34
71	48
72	92
73	122
74	16
75	8
76	18
77	35
78	39
79	64
80	93
81	45
82	90
83	15
84	86
86	999
87	12
88	4
89	6
90	6
91	26
92	7
93	11
94	23
95	8
96	26
97	7
98	31
99	66
100	12
101	10
102	6
103	8
104	30
105	24
106	19
107	9
108	7
109	6
110	9
111	7
112	62
113	13
114	10
115	5
116	8
117	8
118	8
119	5
120	6
121	11
122	6
123	3
124	4
125	5
126	23
127	4
128	3
129	4
130	5
131	6
132	13
133	7
134	11
135	12
136	14
137	12
138	4
139	4
140	25
141	6
142	38
143	8
144	2
145	4
146	11
147	4
148	11
149	7
150	8
151	3
152	2
153	3
154	2
155	1
156	3
157	5
158	5
159	4
160	5
161	4
162	12
163	20
164	32
165	5
166	2
169	2
170	6
172	6
173	2
174	8
175	3
176	12
177	22
178	6
179	2
180	5
181	2
182	1
184	2
185	2
186	3
187	4
188	7
189	4
190	27
191	6
192	4
193	2
194	2
195	1
196	1
198	1
199	3
200	2
201	3
202	3
203	2
204	26
205	13
206	12
207	3
208	2
209	2
210	2
212	2
213	1
214	5
215	7
216	7
217	8
218	6
219	4
220	3
221	3
222	2
223	2
224	3
226	9
227	1
228	17
229	3
230	12
231	3
232	2
233	3
234	3
236	2
238	2
239	2
240	4
241	3
242	42
243	7
244	31
245	4
246	1
248	1
250	4
252	1
254	2
255	4
256	3
257	4
258	4
259	2
260	2
266	2
268	14
270	12
271	2
272	2
273	1
277	2
278	25
279	5
282	18
283	5
284	23
285	6
286	7
287	1
294	2
296	4
298	2
300	3
328	2
330	2
341	2
356	46
357	8
358	46
359	8
360	0
