Mass Spectrum: Methyl 1-(isopropyl-benzyl-phosphinomethyl)-pyrrolidine-2-carboxylate
Formula: C17H26NO2P
CAS: 66912-14-9
Molecular weight: 307
m/z	intensity
39	143
40	41
41	61
43	56
59	31
65	77
67	46
68	67
69	51
70	77
75	61
77	31
78	67
79	31
80	56
81	92
82	241
83	46
91	999
92	195
93	4
108	46
109	26
121	46
122	51
123	61
124	56
125	9
126	46
127	5
140	143
141	251
142	46
143	7
144	2
165	31
166	415
167	123
168	26
182	36
183	6
