Mass Spectrum: Tricyclo[3.2.1.0(2,,4)]oct-6-ene, 8-methylene-, (1.alpha.,2.alpha.,4.alpha.,5.alpha.)-
Formula: C9H10
CAS: 66929-90-6
Molecular weight: 118
m/z	intensity
39	130
65	100
77	130
79	160
91	300
115	340
117	999
118	110
