Mass Spectrum: 2-Methylphenylamino-5-phenyloxazole
Formula: C16H14N2O
CAS: 66927-29-5
Molecular weight: 250
m/z	intensity
26	7
27	40
28	105
29	6
30	9
32	15
36	2
37	8
38	22
39	158
40	11
41	16
42	26
43	9
44	7
50	95
51	303
52	40
53	9
54	3
55	6
56	3
57	8
58	3
61	8
62	46
63	206
64	34
65	36
66	9
67	3
68	1
69	2
70	3
71	4
73	2
74	16
75	23
76	73
77	529
78	89
79	27
80	2
83	3
84	3
85	2
86	8
87	13
88	40
89	528
90	75
91	61
92	12
93	3
102	8
103	76
104	124
105	251
106	80
107	82
108	12
114	8
115	29
116	999
117	268
118	917
119	283
120	34
121	2
125	47
129	1
130	3
132	79
133	17
134	9
135	4
144	271
145	72
146	73
147	810
148	197
149	17
152	3
161	3
165	4
171	3
180	50
181	7
189	1
192	3
193	10
194	12
210	2
211	18
212	2
221	10
222	3
250	641
251	200
252	23
