Mass Spectrum: 3-Acetonylcycloheptanone
Formula: C10H16O2
CAS: 66921-76-4
Molecular weight: 168
m/z	intensity
26	6
27	55
28	27
29	48
31	5
32	2
38	4
39	76
40	18
41	157
42	27
43	999
44	26
45	20
50	3
51	7
52	5
53	31
54	36
55	219
56	22
57	14
58	127
59	22
65	7
66	15
67	101
68	64
69	40
70	13
71	49
72	9
73	5
77	10
78	4
79	31
80	11
81	52
82	57
83	259
84	70
85	32
86	5
87	1
88	1
89	2
91	12
92	8
93	68
94	10
95	34
96	10
97	72
98	61
99	6
100	3
106	4
107	27
108	34
109	19
110	236
111	667
112	53
113	5
121	14
122	14
123	3
124	12
125	67
126	17
127	3
135	16
139	5
140	7
149	5
150	32
151	9
153	18
168	78
169	17
