Mass Spectrum: Phosphonic acid, 2-[(4-pyridinyl)ethyl]-, diethyl ester
Formula: C11H18NO3P
CAS: 66934-89-2
Molecular weight: 243
m/z	intensity
26	6
27	38
28	17
29	65
30	2
31	5
38	2
39	23
40	2
45	9
46	0
47	9
48	1
49	1
50	11
51	46
52	24
53	16
54	5
59	0
61	0
62	1
63	5
64	3
65	52
66	6
67	2
74	0
75	1
76	3
77	56
78	62
79	36
80	13
81	47
82	103
83	40
89	0
90	0
91	20
92	8
93	11
94	16
95	2
96	2
97	0
100	0
101	0
102	1
103	1
104	32
105	54
106	999
107	90
108	5
109	34
110	32
111	108
112	1
114	0
115	0
117	1
118	3
119	2
120	41
121	9
122	4
123	0
124	0
125	0
126	0
130	0
131	0
132	4
133	16
134	59
135	6
136	1
137	6
138	47
139	2
140	0
141	0
142	1
143	3
150	4
151	1
152	38
153	3
154	0
155	0
159	1
160	0
165	2
166	0
168	10
169	2
170	41
171	5
172	0
182	2
183	0
184	2
185	0
186	10
187	6
188	2
196	1
197	1
198	6
199	0
200	10
201	1
212	0
214	2
215	12
216	3
217	0
228	1
242	5
243	146
244	25
245	3
246	0
