Mass Spectrum: Tricyclo[3.2.1.0(2,4)]octan-8-one, 3,3-dimethyl-, (1.alpha.,2.alpha.,4.alpha.,5.alpha.)-
Formula: C10H14O
CAS: 66930-01-6
Molecular weight: 150
m/z	intensity
28	330
39	140
41	190
67	180
77	260
78	240
79	999
80	160
91	450
93	180
95	140
105	120
107	540
122	250
150	10
