Mass Spectrum: 1,4,7,10-Tetraoxa-13-azacyclopentadecane
Formula: C10H21NO4
CAS: 66943-05-3
Molecular weight: 219
m/z	intensity
50	7
51	25
52	7
53	11
54	42
55	301
56	999
57	571
58	476
59	222
60	76
61	33
62	26
67	12
68	28
69	61
70	412
71	253
72	460
73	460
74	730
75	90
76	18
77	11
81	14
82	14
83	25
84	45
85	39
86	571
87	618
88	507
89	142
90	23
91	23
94	14
97	11
98	39
99	28
100	476
101	126
102	111
103	111
104	26
105	18
112	49
113	20
114	68
115	36
116	111
117	34
118	71
119	18
128	17
130	60
131	49
132	190
133	39
134	34
135	34
144	71
145	23
146	23
147	7
148	11
158	31
159	11
160	55
161	52
162	206
163	25
174	22
175	11
176	79
177	15
188	142
189	90
190	33
191	11
218	23
219	34
220	25
