Mass Spectrum: Silane, (3-bromo-1-methylpropoxy)trimethyl-
Formula: C7H17BrOSi
CAS: 66957-05-9
Molecular weight: 224
m/z	intensity
26	8
27	100
28	23
29	85
30	4
31	17
36	5
38	4
39	44
40	6
41	50
42	17
43	145
44	57
45	189
46	14
47	89
48	5
49	5
50	6
51	32
53	23
54	8
55	219
56	22
57	61
58	49
59	81
60	18
61	52
65	12
67	7
69	11
70	16
71	56
72	39
73	999
74	113
75	306
76	23
77	18
79	6
80	9
81	8
82	5
83	13
85	15
86	5
87	17
88	7
91	8
93	8
95	8
97	8
99	15
101	83
102	16
103	84
104	11
105	8
107	16
109	23
111	13
113	8
115	17
116	5
117	924
118	118
119	49
123	20
124	7
125	21
127	6
129	147
130	22
131	12
135	29
136	13
137	524
138	53
139	545
140	48
141	39
143	8
144	8
145	12
151	6
153	6
165	9
167	183
168	19
169	180
170	16
171	8
181	389
182	42
183	413
184	44
185	17
191	5
193	5
195	5
209	319
210	42
211	323
212	44
213	16
