Mass Spectrum: Tricyclo[4.2.1.1(2,5)]decan-9-ol, stereoisomer
Formula: C10H16O
CAS: 66953-30-8
Molecular weight: 152
m/z	intensity
26	8
27	190
28	30
29	154
31	41
39	304
40	47
41	504
42	41
43	65
44	8
50	11
51	54
52	26
53	161
54	125
55	293
56	56
57	294
58	21
63	16
64	87
66	433
67	999
68	156
69	83
70	195
71	32
77	202
78	227
79	768
80	492
81	318
82	64
83	188
84	61
85	13
91	446
92	483
93	684
94	90
95	296
96	121
97	52
103	9
104	13
105	217
106	270
107	59
108	146
109	587
110	139
117	15
119	252
120	25
121	271
122	25
123	396
124	89
132	11
133	18
134	165
135	16
137	17
152	702
153	63
