Mass Spectrum: 2,5-Hexanediol, 2TMS derivative
Formula: C12H30O2Si2
CAS: 66956-94-3
Molecular weight: 262
m/z	intensity
40	50
43	13
45	10
55	54
73	314
74	30
75	110
83	89
115	26
116	17
117	999
118	118
119	48
130	194
131	53
133	43
147	276
148	50
149	62
157	140
158	23
171	27
172	16
191	60
192	6
247	10
