Mass Spectrum: (3R,3aR,4aR,8aR,9aR)-3,8a-Dimethyl-5-methylene-3,3a,4,4a,5,6,9,9a-octahydronaphtho[2,3-b]furan-2(8aH)-one
Formula: C15H20O2
CAS: 66964-62-3
Molecular weight: 232
m/z	intensity
26	5
27	76
28	22
29	101
30	2
31	3
37	2
38	7
39	294
40	60
41	454
42	43
43	73
44	8
45	7
46	2
50	26
51	130
52	74
53	293
54	38
55	333
56	33
57	26
58	8
60	3
61	3
62	9
63	54
64	32
65	290
66	87
67	292
68	58
70	35
71	61
72	8
73	8
74	54
75	23
76	20
77	657
78	203
79	719
80	183
84	3
85	3
86	2
87	6
88	2
89	26
90	10
91	999
92	140
93	156
95	10
98	22
99	10
100	1
101	4
102	27
103	153
104	87
105	807
106	301
107	138
112	17
113	20
115	216
116	101
117	514
118	182
119	914
120	97
121	23
122	57
126	3
127	52
128	215
129	316
130	153
131	492
132	136
133	88
134	50
141	65
142	70
143	803
144	180
145	265
146	63
147	10
154	5
155	14
156	35
157	124
158	458
159	879
160	128
169	4
170	5
171	74
172	23
173	15
174	14
184	2
185	12
186	16
187	34
201	1
202	2
203	44
204	33
205	2
214	10
215	2
217	66
218	11
231	3
232	98
233	15
