Mass Spectrum: 1,3-Dioxolane, 2-methyl-2-(4-methyl-3-methylenepentyl)-
Formula: C11H20O2
CAS: 66972-05-2
Molecular weight: 184
m/z	intensity
39	50
41	100
43	380
87	999
99	40
