Mass Spectrum: Bis(dichloroacetyl)diethylstilbestrol
Formula: C22H20Cl4O4
CAS: 66983-78-6
Molecular weight: 488
m/z	intensity
27	160
29	260
35	100
36	330
38	130
39	170
41	260
43	180
47	80
48	390
49	90
50	140
51	120
53	110
55	230
57	110
63	100
65	180
76	380
77	420
78	250
79	200
87	180
89	130
91	360
102	80
103	200
105	250
107	999
108	100
111	130
113	90
115	460
116	140
117	150
119	210
121	390
127	170
128	220
129	190
130	90
131	180
132	70
133	430
134	170
135	190
139	110
141	200
142	100
143	80
144	110
145	910
146	170
147	100
151	140
152	270
153	200
157	150
158	90
159	380
160	70
161	70
163	80
164	100
165	510
166	270
167	130
173	100
174	60
175	80
176	80
177	140
178	390
179	230
180	100
181	260
182	90
183	70
189	130
190	110
191	230
192	210
193	250
194	180
195	190
196	60
197	100
202	100
203	120
204	70
205	100
206	90
207	170
208	110
209	230
210	150
211	130
217	130
218	60
219	140
220	130
221	290
222	120
223	210
224	70
225	60
231	110
233	90
235	70
237	150
238	230
239	170
243	80
245	80
255	580
256	110
257	380
258	60
259	80
331	60
333	90
335	60
347	90
348	120
349	260
350	120
351	150
361	220
363	180
377	80
378	170
379	70
380	100
454	60
456	60
459	120
461	150
463	80
488	600
490	770
491	230
492	390
493	100
