Mass Spectrum: 10,12-Tricosadiynoic acid
Formula: C23H38O2
CAS: 66990-30-5
Molecular weight: 346
m/z	intensity
41	814
42	8
43	999
44	3
45	157
47	3
50	28
51	84
52	24
53	98
54	2
55	803
56	3
57	271
59	50
60	198
61	9
62	4
63	58
64	1
65	177
66	2
67	568
68	3
69	304
70	1
71	92
73	101
74	14
75	22
76	79
77	322
78	259
79	562
80	251
81	434
82	107
83	128
85	52
87	26
89	62
91	991
92	354
93	437
94	172
95	274
96	55
97	51
99	20
101	19
102	19
103	120
104	38
105	611
106	264
107	245
108	92
109	94
110	11
111	22
113	14
115	141
116	50
117	268
118	2
119	867
120	251
121	254
122	26
123	69
124	14
125	8
126	2
127	18
128	34
129	63
130	12
131	215
132	1
133	541
134	176
135	118
137	54
138	46
139	9
141	21
142	9
143	41
145	135
147	247
148	26
149	91
150	55
151	27
152	19
153	8
154	6
155	8
157	24
159	73
160	23
161	139
162	30
163	40
164	20
165	17
166	11
167	17
168	12
169	16
170	1
171	14
173	32
174	13
175	78
177	43
178	26
179	39
180	14
181	9
183	11
185	10
187	38
189	95
190	20
191	25
192	5
193	20
194	5
195	4
197	5
199	3
201	17
202	8
203	47
204	107
205	50
206	19
207	11
208	1
209	1
211	4
213	1
215	7
217	22
218	14
219	27
220	24
221	11
222	15
223	1
225	3
229	3
231	14
232	7
233	17
234	78
235	16
236	4
239	1
243	3
244	4
245	20
246	6
247	13
248	11
249	8
257	10
259	14
261	29
262	10
263	5
271	7
273	6
275	26
276	9
277	3
278	2
285	3
287	4
289	25
290	11
291	1
303	15
304	1
305	4
317	6
318	11
319	3
329	7
331	1
345	2
346	144
347	37
348	3
