Mass Spectrum: Formic acid, ethoxymethylene hydrazide
Formula: C4H8N2O2
CAS: 6699-99-6
Molecular weight: 116
m/z	intensity
26	56
27	393
29	999
30	92
31	66
39	5
40	2
41	26
42	203
43	202
44	216
45	342
46	137
47	9
49	1
50	1
51	2
52	1
53	0
54	14
55	7
56	23
57	18
58	37
59	92
60	376
61	23
62	39
63	1
65	3
67	4
69	7
70	16
71	114
72	128
73	27
74	9
75	2
76	2
77	2
81	2
83	3
87	59
88	262
89	16
90	1
116	602
117	37
