Mass Spectrum: 10-12-Pentacosadiynoic acid
Formula: C25H42O2
CAS: 66990-32-7
Molecular weight: 374
m/z	intensity
41	923
42	94
43	999
44	52
45	93
51	81
52	9
53	88
54	74
55	848
56	61
57	320
59	51
60	63
63	41
64	9
65	113
66	73
67	681
68	88
69	362
70	36
71	138
72	9
73	73
76	53
77	245
78	280
79	697
80	467
81	640
82	190
83	170
84	41
85	65
86	9
87	30
89	41
90	21
91	939
92	393
93	444
94	268
95	342
96	101
97	113
98	10
103	80
104	92
105	610
106	335
107	326
108	151
109	122
110	32
111	30
115	88
116	44
117	233
118	104
119	726
120	274
121	275
122	70
123	66
124	32
129	43
130	12
131	195
132	61
133	575
134	227
135	155
136	42
137	29
138	9
143	29
145	120
146	31
147	198
148	70
149	73
150	62
151	33
157	10
159	75
160	35
161	163
162	27
163	29
165	19
166	32
171	8
173	33
175	62
177	24
178	29
179	60
180	9
187	43
189	33
191	26
203	31
205	50
217	52
219	19
220	18
231	40
232	64
233	36
234	55
261	20
275	19
289	22
374	29
