Mass Spectrum: Egtazic acid
Formula: C14H24N2O10
CAS: 67-42-5
Molecular weight: 380
m/z	intensity
12	10
13	1
14	9
15	63
16	31
17	52
18	212
19	2
25	2
26	18
27	49
28	265
29	37
30	59
31	37
32	4
33	1
36	4
38	3
39	9
40	12
41	51
42	337
43	120
44	736
45	96
46	4
50	1
51	2
52	5
53	4
54	16
55	20
56	130
57	90
58	999
59	66
60	19
61	1
65	2
66	2
67	5
68	9
69	8
70	106
71	153
72	122
73	17
74	22
75	9
76	1
77	2
78	2
79	3
80	5
81	3
82	9
83	7
84	26
85	13
86	74
87	17
88	95
89	11
90	2
91	2
92	1
93	3
94	5
95	4
96	5
97	6
98	14
99	18
100	93
101	47
102	80
103	8
104	2
105	2
106	2
107	2
108	2
109	3
110	3
111	4
112	8
113	14
114	67
115	13
116	38
117	8
118	13
119	1
120	7
121	2
122	2
123	2
124	3
125	4
126	5
127	15
128	32
129	5
130	15
131	4
132	40
133	7
134	9
135	2
136	2
137	2
138	2
139	3
140	3
141	7
142	31
143	6
144	20
145	7
146	70
147	5
148	2
149	2
150	1
151	1
152	2
153	1
154	2
155	3
156	8
157	5
158	12
159	9
160	10
161	3
162	2
164	1
165	2
166	1
167	1
168	2
169	1
170	1
171	6
172	3
173	3
174	3
175	4
176	13
177	2
178	2
179	1
180	1
181	1
183	1
184	1
185	3
186	3
187	9
188	3
189	6
190	2
191	1
192	1
198	1
199	3
200	2
201	8
202	4
203	8
204	2
213	1
214	2
215	9
216	9
217	3
220	1
230	1
245	2
260	1
273	2
274	2
