Mass Spectrum: Furazolidone
Formula: C8H7N3O5
CAS: 67-45-8
Molecular weight: 225
m/z	intensity
43	158
44	163
45	9
46	4
48	3
49	19
50	126
51	516
52	80
53	116
54	87
55	31
56	71
57	99
58	9
59	29
60	1
62	1
63	7
64	79
65	63
66	20
67	22
68	18
69	30
70	13
71	2
75	1
76	1
77	25
78	76
79	460
80	106
81	20
82	43
83	5
84	1
85	3
86	131
87	999
88	41
89	5
90	0
91	2
92	2
93	24
94	11
95	5
96	38
97	5
98	1
105	6
106	6
107	14
108	12
109	4
110	7
111	1
113	51
114	1
119	2
120	0
122	40
123	8
124	2
125	20
126	2
128	0
133	0
134	1
135	4
137	3
138	2
139	17
140	3
141	1
149	1
150	1
153	7
154	1
163	2
164	0
167	0
179	58
180	7
181	0
185	1
187	1
195	1
209	4
225	221
226	23
