Mass Spectrum: Methyl Alcohol
Formula: CH4O
CAS: 67-56-1
Molecular weight: 32
m/z	intensity
2	3
12	2
13	6
14	16
15	123
16	1
17	3
18	7
19	1
28	45
29	445
30	64
31	999
32	743
33	11
34	1
