Mass Spectrum: Hydroxylamine, O-methyl-
Formula: CH5NO
CAS: 67-62-9
Molecular weight: 47
m/z	intensity
14	3
15	65
16	15
17	129
18	36
27	1
28	51
29	176
30	90
31	100
32	423
33	3
43	2
44	53
45	2
46	70
47	999
48	19
49	1
