Mass Spectrum: Isopropyl Alcohol
Formula: C3H8O
CAS: 67-63-0
Molecular weight: 60
m/z	intensity
14	27
15	95
19	99
26	25
27	168
28	9
29	125
31	68
37	12
38	20
39	66
41	82
42	44
43	191
44	42
45	999
46	18
59	38
60	5
