Mass Spectrum: Trichloromethane
Formula: CHCl3
CAS: 67-66-3
Molecular weight: 118
m/z	intensity
12	3
13	8
35	98
36	11
37	33
38	4
41	3
42	2
47	270
48	130
49	95
50	44
51	1
58	1
59	1
70	10
72	7
74	1
82	53
83	999
84	47
85	714
86	14
87	127
88	1
117	16
118	25
119	16
120	24
121	5
122	8
123	1
124	1
