Mass Spectrum: Acetone
Formula: C3H6O
CAS: 67-64-1
Molecular weight: 58
m/z	intensity
13	8
14	45
15	120
16	8
25	12
26	49
27	70
28	12
29	36
31	4
36	7
37	25
38	28
39	46
40	12
41	27
42	96
43	999
44	24
57	4
58	248
59	9
