Mass Spectrum: Tricyclo[4.2.1.1(2,5)]decan-9-one
Formula: C10H14O
CAS: 67009-90-9
Molecular weight: 150
m/z	intensity
26	16
27	236
28	31
29	59
37	3
38	18
39	296
40	68
41	285
42	27
43	16
44	4
45	4
46	3
50	18
51	59
52	33
53	162
54	164
55	184
56	14
57	9
58	5
59	4
60	2
62	5
63	18
64	4
65	72
66	216
67	354
68	249
69	17
70	5
71	4
72	5
75	4
76	3
77	150
78	119
79	699
80	999
81	430
82	50
83	282
84	134
85	8
89	4
91	164
92	41
93	492
94	279
95	60
96	17
103	4
104	87
105	21
106	37
107	193
108	90
109	39
110	3
111	20
115	2
117	29
118	4
119	18
120	3
121	100
122	77
123	7
131	5
132	25
134	3
135	10
136	2
149	12
150	574
151	69
152	13
153	2
