Mass Spectrum: 1-Methyl-2-pyrrolidineethanol
Formula: C7H15NO
CAS: 67004-64-2
Molecular weight: 129
m/z	intensity
14	1
15	24
17	1
18	3
26	5
27	31
28	27
29	15
30	18
31	19
32	1
37	1
38	3
39	28
40	6
41	53
42	206
43	22
44	62
45	9
50	2
51	3
52	3
53	10
54	13
55	32
56	24
57	25
58	10
59	1
65	4
66	2
67	13
68	14
69	17
70	55
71	5
72	4
77	2
78	1
79	4
80	6
81	8
82	64
83	19
84	999
85	60
86	5
87	1
92	1
93	3
94	8
95	3
96	11
97	8
98	15
99	4
100	4
101	1
106	3
107	5
108	8
109	6
110	12
111	5
112	2
126	1
127	1
128	9
129	15
130	2
