Mass Spectrum: Benzamide, 4-methyl-N-(2,3-dihydro-1,5-dimethyl-3-oxo-2-phenylpyrazol-4-yl)-
Formula: C19H19N3O2
CAS: 67019-61-8
Molecular weight: 321
m/z	intensity
36	0
38	4
39	33
40	6
41	13
42	7
43	4
44	5
45	1
48	0
50	9
51	30
52	9
54	25
56	684
57	23
58	0
60	0
63	44
64	37
65	122
66	10
67	7
68	3
69	2
70	1
71	1
73	0
74	4
75	4
76	9
77	71
78	5
79	2
80	1
81	2
83	50
84	5
85	3
86	0
87	2
89	50
91	484
92	43
93	7
94	1
95	0
97	1
98	0
101	0
103	6
104	5
105	40
106	5
107	0
109	3
110	0
111	0
115	1
116	3
119	999
120	74
121	7
122	0
127	0
128	1
129	2
130	2
131	4
132	3
133	1
134	0
135	0
139	0
143	1
144	1
145	3
146	2
147	1
153	0
155	0
156	0
157	1
158	2
159	6
160	2
161	0
170	0
171	2
172	3
173	5
174	2
175	0
180	0
182	0
183	2
184	4
185	1
186	1
187	4
188	3
189	0
194	3
195	0
199	3
200	4
202	164
203	19
204	4
205	0
211	1
213	4
214	1
215	1
216	0
228	1
229	2
230	3
231	0
261	0
266	0
276	0
290	0
291	0
292	3
293	0
302	2
303	0
304	0
305	1
307	24
308	5
309	0
310	0
315	0
318	1
319	7
321	423
322	77
323	11
324	1
