Mass Spectrum: 1,4,7,10,13-Pentaoxacyclononadecan-14,19-dione
Formula: C14H24O7
CAS: 67030-22-2
Molecular weight: 304
m/z	intensity
42	69
45	999
69	30
70	49
71	19
72	20
87	99
89	99
99	299
129	50
173	159
217	59
261	29
303	9
305	9
