Mass Spectrum: 1-Propanone, 1-cyclopropyl-
Formula: C6H10O
CAS: 6704-19-4
Molecular weight: 98
m/z	intensity
25	2
26	33
27	139
28	29
29	164
30	4
31	3
36	0
37	11
38	27
39	219
40	25
41	542
42	40
43	11
44	0
45	0
49	1
50	7
51	7
52	2
53	11
54	2
55	23
56	8
57	102
58	3
59	0
61	1
62	1
63	1
64	0
65	2
66	1
67	4
69	999
70	52
71	4
72	0
73	0
74	1
75	0
77	2
79	3
80	0
81	0
82	0
83	2
84	0
95	0
96	0
98	226
99	15
100	1
