Mass Spectrum: Chromium, pentacarbonyl[dimethyl 4,5-dihydro-4-(1-methylethyl)-3H-pyrazole-3,3-dicarboxylate-N1]-
Formula: C15H16CrN2O9
CAS: 67049-37-0
Molecular weight: 420
m/z	intensity
26	11
27	29
28	999
29	25
30	8
31	29
32	10
33	1
37	0
38	1
39	27
40	9
41	89
42	18
43	62
44	11
45	13
46	0
47	0
49	0
50	10
51	2
52	189
53	24
54	6
55	46
56	59
57	12
58	1
59	59
60	1
61	0
63	0
64	1
65	5
66	5
67	27
68	45
69	39
70	8
71	3
72	0
73	3
74	2
75	1
77	5
78	4
79	16
80	66
81	30
82	79
83	45
84	10
85	7
86	1
87	5
88	0
89	0
90	1
91	10
92	7
93	33
94	12
95	26
96	2
97	8
98	44
99	5
100	4
101	3
102	0
103	0
104	0
105	8
106	4
107	26
108	44
109	14
110	12
111	6
112	40
113	129
114	192
115	26
116	6
117	5
118	5
119	25
120	17
121	68
122	24
123	14
124	21
125	15
126	68
127	26
128	3
129	2
130	1
131	5
132	15
133	8
134	20
135	13
136	106
137	44
138	50
139	9
140	7
141	4
142	1
143	2
144	3
145	51
146	11
147	23
148	15
149	21
150	21
151	42
152	159
153	38
154	9
155	1
156	0
157	6
158	6
159	4
160	15
161	11
162	44
163	16
164	15
165	5
166	17
167	6
168	17
169	17
170	3
171	1
172	1
173	3
174	2
175	7
176	5
177	16
178	18
179	27
180	10
181	5
182	65
183	12
184	3
185	3
186	0
187	1
188	2
189	5
190	10
191	16
192	34
193	10
194	27
195	6
196	60
197	14
198	3
200	5
201	1
202	0
203	5
204	4
205	15
206	9
208	6
209	26
210	36
211	8
212	2
213	0
214	0
215	0
216	0
217	2
218	6
219	4
220	15
221	35
222	12
223	4
224	40
225	9
226	2
227	0
228	0
230	0
231	0
233	0
234	0
235	0
236	1
237	13
238	9
239	2
240	0
241	0
243	0
244	0
247	0
249	8
250	32
251	5
252	511
253	113
254	29
255	3
265	0
266	0
275	0
277	14
278	3
279	2
280	5
306	0
307	0
308	19
309	4
310	1
333	3
334	0
335	0
336	1
338	2
339	0
361	3
362	2
363	0
364	20
365	6
366	1
367	0
390	1
391	0
392	33
393	9
394	2
420	1
421	0
