Mass Spectrum: Molybdenum, pentacarbonyl(pyridazine-N1)-, (OC-6-22)-
Formula: C9H4MoN2O5
CAS: 67049-36-9
Molecular weight: 318
m/z	intensity
26	90
27	20
28	999
29	11
30	2
31	0
32	0
34	0
37	2
38	4
39	6
40	1
41	4
42	0
43	1
44	2
49	4
50	56
51	121
52	73
53	5
54	0
55	2
56	0
57	1
63	0
64	0
65	0
66	0
67	4
68	0
69	2
70	0
71	1
76	0
77	1
78	2
79	1
80	177
81	11
82	0
83	1
85	0
89	0
90	0
91	1
92	7
93	0
94	5
95	8
96	8
97	5
98	12
100	5
104	0
105	0
106	1
107	0
108	1
109	1
110	2
111	0
112	2
114	1
117	0
118	2
119	3
120	8
121	4
122	9
123	12
124	12
125	10
126	11
127	2
128	4
132	0
135	0
136	0
137	0
138	0
139	0
142	0
144	0
145	4
146	1
147	3
148	11
149	6
150	7
151	14
152	9
153	7
154	10
155	0
156	3
159	0
172	5
173	0
174	3
175	6
176	12
177	4
178	14
179	8
180	11
181	5
182	11
183	0
184	4
200	5
201	0
202	3
203	5
204	7
205	4
206	9
207	2
208	4
209	1
210	1
212	1
228	4
230	3
231	5
232	5
233	3
234	7
235	1
236	3
237	0
238	1
240	0
256	2
258	1
259	2
260	5
261	1
262	5
263	4
264	5
265	2
266	6
267	0
268	2
284	2
286	1
287	2
288	2
289	1
290	3
291	0
292	1
312	0
314	0
315	1
316	1
317	0
318	1
320	0
