Mass Spectrum: 2,2'-Bi-1,3-dioxolane
Formula: C6H10O4
CAS: 6705-89-1
Molecular weight: 146
m/z	intensity
17	3
18	11
19	37
25	1
26	17
27	82
28	81
29	158
30	28
31	24
32	3
39	1
41	4
42	60
43	67
44	16
45	399
46	9
47	2
55	2
56	1
57	5
58	17
59	4
60	1
71	9
72	14
73	999
74	33
75	4
86	47
87	15
88	1
94	1
101	2
146	1
