Mass Spectrum: Coumarin, 4-[1-(4-nitrophenyl)-3-oxopentylthio]-
Formula: C20H17NO5S
CAS: 67060-39-3
Molecular weight: 383
m/z	intensity
33	4
34	2
35	0
36	1
37	12
38	24
39	82
40	24
41	16
42	10
43	36
44	26
45	56
46	3
47	4
48	2
49	7
50	67
51	100
52	29
53	15
54	4
55	26
57	999
58	50
59	15
60	18
61	22
62	46
63	93
64	18
65	20
66	4
67	3
68	3
69	42
70	8
71	11
72	5
73	10
74	28
75	55
76	77
77	130
78	39
79	6
80	2
81	6
82	10
83	9
84	4
85	23
86	8
87	13
88	15
89	111
90	132
91	29
92	22
93	14
94	8
95	9
96	6
97	3
98	5
99	2
100	2
101	30
102	133
103	28
104	8
105	8
106	3
107	2
108	16
109	5
110	2
111	2
112	1
113	1
114	1
115	13
116	11
117	12
118	51
119	12
120	14
121	141
122	48
123	10
124	3
125	1
126	1
127	2
128	4
129	16
130	116
131	15
132	3
133	10
134	7
135	3
136	6
137	12
138	1
139	1
140	0
141	1
142	0
143	0
144	2
145	8
146	36
147	5
148	6
149	38
150	94
151	12
152	6
153	1
154	0
155	0
156	0
157	0
158	2
159	10
160	6
161	1
162	1
163	0
164	1
165	1
166	6
167	1
168	0
169	0
171	1
172	0
173	6
174	1
176	286
177	54
178	321
179	43
180	17
181	2
182	0
183	0
184	0
185	0
188	4
189	3
190	1
191	0
192	0
193	0
194	0
195	0
196	0
202	0
203	0
205	33
206	29
207	4
208	2
209	0
210	0
218	0
221	1
222	0
223	0
224	0
234	5
235	1
236	0
237	0
238	0
239	0
251	0
252	0
264	0
265	0
266	0
267	0
276	2
277	0
279	0
280	0
281	1
282	0
283	0
294	0
295	0
308	0
309	3
310	1
311	1
312	0
321	1
322	0
326	24
327	4
328	1
329	0
365	0
383	5
384	1
385	0
