Mass Spectrum: Bicyclo[2.2.1]hept-5-ene-2,2-dimethanol
Formula: C9H14O2
CAS: 6707-12-6
Molecular weight: 154
m/z	intensity
15	0
17	3
18	11
19	1
20	0
26	4
27	33
28	8
29	36
30	5
31	35
32	0
35	8
36	47
37	4
38	23
39	64
40	25
41	45
42	5
43	12
44	2
50	5
51	17
52	6
53	15
54	3
55	11
57	30
58	3
62	3
63	10
64	2
65	73
66	999
67	128
68	10
69	17
70	9
71	32
72	0
73	0
75	1
77	57
78	24
79	64
80	29
81	7
82	2
83	2
85	0
87	27
88	6
89	102
90	4
91	54
92	12
93	9
94	4
95	10
96	0
103	9
104	2
105	17
106	3
107	5
108	10
115	3
117	20
118	5
121	1
122	2
123	4
134	0
136	20
137	0
