Mass Spectrum: 2H-Azepin-2-one, 3-aminohexahydro-
Formula: C6H12N2O
CAS: 671-42-1
Molecular weight: 128
m/z	intensity
14	1
15	32
16	2
17	3
18	11
26	10
27	81
28	289
29	119
30	404
31	9
32	1
37	1
38	5
39	67
40	15
41	108
42	139
43	590
44	169
45	20
46	6
49	1
50	2
51	5
52	8
53	17
54	42
55	51
56	999
57	182
58	69
59	14
65	4
66	11
67	18
68	27
69	17
70	165
71	162
72	248
73	15
77	1
80	6
81	30
82	286
83	725
84	110
85	13
86	5
93	1
94	1
95	1
96	3
97	2
98	7
99	120
100	59
101	4
109	1
110	81
111	150
112	11
113	1
127	2
128	110
129	16
130	1
