Mass Spectrum: 4-Ketoglucose, bis(O-methyloxime), tetrakis(trimethylsilyl)
Formula: C20H48N2O6Si4
CAS: 67104-27-2
Molecular weight: 524
m/z	intensity
24	0
25	0
26	4
27	23
28	43
29	37
30	8
31	29
32	13
35	1
37	0
38	0
39	1
40	1
41	7
42	3
43	17
44	10
45	95
46	7
47	13
48	1
49	2
50	1
51	1
53	2
54	3
55	5
56	2
57	7
58	8
59	76
60	10
61	6
65	1
66	2
67	3
68	4
69	1
70	4
71	4
72	14
73	999
74	86
75	100
76	5
77	2
79	1
80	0
81	0
82	2
83	1
84	8
85	3
86	4
87	3
88	2
89	83
90	5
91	3
92	1
93	0
94	1
95	1
96	3
98	3
99	3
100	20
101	13
102	7
103	201
104	20
105	29
106	2
107	2
108	1
110	1
111	2
112	3
113	3
114	6
115	6
116	6
117	69
118	5
119	7
121	1
122	0
125	1
126	6
127	3
128	8
129	7
130	9
131	21
132	3
133	76
134	8
135	6
142	19
143	4
144	3
145	2
146	2
147	144
148	20
149	12
150	1
151	1
152	0
154	1
155	1
156	1
157	1
158	4
159	2
160	33
161	6
162	2
163	7
164	0
165	0
166	0
168	1
169	1
170	1
171	4
172	28
173	8
174	5
175	4
176	1
177	2
179	0
180	0
181	2
182	1
183	2
184	1
186	2
187	2
188	3
189	11
190	3
191	43
192	9
193	4
194	1
197	1
199	1
200	3
201	8
202	61
203	8
204	9
205	18
206	5
207	2
208	2
209	0
211	0
213	0
214	3
215	0
216	8
217	4
218	0
219	1
221	2
223	0
225	1
229	1
230	4
231	9
232	2
233	2
235	2
236	1
237	1
240	1
241	2
243	1
244	1
245	1
246	2
247	0
249	0
252	0
256	0
259	0
260	0
261	3
262	2
263	0
269	1
271	0
273	1
274	1
275	1
276	0
277	1
282	0
284	0
286	0
289	1
290	0
301	2
302	1
303	0
305	0
311	0
313	0
318	0
331	0
332	3
333	2
334	1
341	0
346	1
350	0
356	0
361	0
362	1
364	40
365	14
366	5
367	1
375	1
376	5
377	1
388	0
419	0
