Mass Spectrum: D-threo-2,5-Hexodiulose, 1-deoxy-3,4,6-tris-O-(trimethylsilyl)-, bis(O-methyloxime)-
Formula: C17H40N2O5Si3
CAS: 67104-29-4
Molecular weight: 436
m/z	intensity
26	2
27	5
28	41
29	40
30	23
31	23
38	4
39	9
40	22
41	49
42	263
43	28
44	20
45	99
46	5
47	12
51	2
52	3
53	2
54	9
55	7
56	8
57	3
58	11
59	75
60	7
61	6
63	2
65	1
66	3
67	1
68	3
69	3
70	6
71	3
72	17
73	999
74	81
75	75
76	5
77	6
78	1
80	1
81	2
82	5
83	1
84	75
85	9
86	5
87	2
88	4
89	121
90	10
91	3
92	1
93	1
95	2
96	2
97	2
98	3
99	3
100	25
101	8
102	5
103	159
104	15
105	54
106	5
107	1
109	1
112	1
113	2
114	50
115	8
116	5
117	9
118	1
119	8
121	1
123	6
125	3
126	3
127	1
129	5
130	6
131	10
132	2
133	39
134	4
135	1
140	1
141	1
142	5
143	2
144	1
146	1
147	98
148	15
149	8
153	20
155	3
156	2
157	6
158	2
159	1
160	1
163	4
171	1
172	7
173	4
174	406
175	54
176	17
177	3
179	1
183	1
187	1
188	2
189	2
191	2
197	1
200	1
201	2
202	2
204	2
216	2
217	2
218	1
221	1
231	3
243	2
245	4
246	1
247	1
262	152
263	32
264	14
265	2
269	1
334	1
360	2
421	5
422	1
