Mass Spectrum: (1R)-(+)-Camphanic acid
Formula: C10H14O4
CAS: 67111-66-4
Molecular weight: 198
m/z	intensity
15	3
26	7
27	89
29	63
31	7
37	3
38	15
39	297
40	47
41	612
42	85
43	286
44	30
45	124
46	7
47	5
50	29
51	84
52	39
53	231
54	72
55	815
56	54
57	34
58	6
59	27
60	6
61	3
62	11
63	27
64	6
65	91
66	30
67	414
68	43
69	304
70	114
71	15
72	2
73	4
74	3
75	3
76	3
77	145
78	28
79	123
80	19
81	125
82	294
83	896
84	68
85	15
86	3
87	6
88	17
89	5
90	2
91	134
92	20
93	357
94	44
95	190
96	44
97	327
98	27
99	8
100	5
102	1
103	3
105	20
106	21
107	348
108	66
109	999
110	101
111	286
112	40
113	26
114	10
115	2
119	8
120	1
121	36
122	6
123	12
124	205
125	431
126	51
127	267
128	20
129	2
133	2
134	7
135	8
136	5
137	191
138	21
139	696
140	62
141	10
142	7
143	4
151	11
152	346
153	39
154	19
155	21
156	2
170	372
171	37
172	5
198	1
