Mass Spectrum: Cyclohexanone, 2,5-dimethyl-2-(1-methylethenyl)-
Formula: C11H18O
CAS: 6711-26-8
Molecular weight: 166
m/z	intensity
13	4
14	30
15	151
16	8
17	15
18	40
19	1
24	0
25	2
26	39
27	540
28	193
29	331
30	9
31	4
32	3
36	2
37	15
38	43
39	731
40	151
41	999
42	206
43	270
44	18
45	6
46	2
47	3
49	3
50	33
51	101
52	58
53	301
54	151
55	452
56	84
57	38
58	6
59	5
60	2
61	3
62	9
63	28
64	11
65	87
66	49
67	657
68	100
69	233
70	81
71	37
72	4
74	5
75	8
76	6
77	111
78	32
79	141
80	43
81	511
82	419
83	126
84	25
85	4
86	3
88	3
89	6
90	3
91	101
92	21
93	98
94	50
95	461
96	205
97	42
98	10
99	2
101	1
102	2
103	8
104	4
105	42
106	23
107	346
108	54
109	262
110	59
111	35
112	4
113	3
114	2
115	10
116	5
117	8
118	4
119	14
120	8
121	24
122	100
123	935
124	206
125	20
126	12
127	2
128	2
129	2
130	1
131	8
132	2
133	53
134	6
135	9
136	5
137	364
138	53
139	4
145	1
146	3
147	3
148	30
149	19
150	5
151	194
152	21
153	2
159	0
162	1
163	1
164	9
165	4
166	244
167	29
168	3
