Mass Spectrum: 2-Methylbutyl octanoate
Formula: C13H26O2
CAS: 67121-39-5
Molecular weight: 214
m/z	intensity
27	31
29	75
31	4
39	26
40	5
41	132
42	63
43	274
44	8
45	12
53	7
54	6
55	165
56	27
57	355
58	14
59	8
60	92
61	23
67	18
68	4
69	30
70	999
71	321
72	24
73	63
74	10
81	4
82	9
83	29
84	42
85	28
87	48
88	3
89	10
97	11
98	21
99	3
100	5
101	64
102	4
103	5
109	30
110	2
111	3
115	35
116	2
125	8
126	1
127	889
128	73
129	7
130	18
131	2
143	3
144	75
145	120
146	9
157	2
184	10
185	6
