Mass Spectrum: 1,3-Oxathiolane, 2-ethyl-2-methyl-
Formula: C6H12OS
CAS: 6712-26-1
Molecular weight: 132
m/z	intensity
15	27
26	34
27	130
39	33
41	38
42	29
43	946
45	231
55	84
57	192
58	77
59	356
60	999
61	144
62	54
72	173
73	115
103	575
104	34
105	28
117	36
132	149
