Mass Spectrum: Benzenemethanol, .alpha.-methyl-.alpha.-2-propynyl-
Formula: C11H12O
CAS: 6712-35-2
Molecular weight: 160
m/z	intensity
12	1
13	1
14	4
15	25
17	4
18	25
19	4
20	6
24	1
25	3
26	5
27	19
28	39
29	3
32	9
36	10
37	44
38	73
39	197
40	168
41	13
42	8
43	584
44	16
45	3
49	6
50	82
51	219
52	20
53	8
55	3
57	4
58	4
60	2
61	6
62	14
63	29
64	6
65	24
66	3
67	2
69	2
70	2
71	2
73	7
74	33
75	23
76	28
77	707
78	86
79	8
80	1
83	1
85	2
86	4
87	4
88	2
89	12
90	3
91	36
92	4
98	2
101	2
102	8
103	10
104	5
105	999
106	79
107	6
113	1
114	1
115	47
116	9
117	28
118	7
119	2
120	300
121	453
122	41
123	3
126	2
127	5
128	10
129	4
130	1
131	2
132	1
133	1
139	4
141	39
142	24
143	8
144	3
145	41
146	5
160	46
161	30
162	5
163	1
164	1
