Mass Spectrum: Isopinocarveol
Formula: C10H16O
CAS: 6712-79-4
Molecular weight: 152
m/z	intensity
26	42
27	336
28	187
29	268
30	24
31	95
38	34
39	396
40	85
41	999
42	177
43	278
44	183
45	32
50	46
51	105
52	68
53	235
54	85
55	859
56	97
57	87
58	25
59	111
60	56
61	30
62	23
63	53
64	39
65	111
66	54
67	266
68	52
69	561
70	797
71	99
72	16
77	177
78	78
79	350
80	80
81	328
82	83
83	624
84	129
85	56
91	543
92	708
93	199
94	74
95	167
96	62
97	56
98	18
103	36
105	109
106	60
107	56
108	76
109	225
110	64
111	80
115	36
117	40
118	24
119	296
120	40
121	26
123	44
124	20
133	28
134	223
135	38
137	40
152	30
