Mass Spectrum: Heptanamide, N-(2-cyanoethyl)-N-hexyl-
Formula: C16H30N2O
CAS: 67138-89-0
Molecular weight: 266
m/z	intensity
43	999
55	250
83	600
97	130
113	380
114	350
126	160
139	50
156	180
181	340
196	250
209	150
223	60
237	30
266	100
