Mass Spectrum: 2-Propanol, 1-[(2-hydroxyethyl)thio]-
Formula: C5H12O2S
CAS: 6713-03-7
Molecular weight: 136
m/z	intensity
24	0
25	1
26	13
27	157
28	2
29	83
31	230
33	2
34	7
35	28
36	0
37	2
38	3
39	47
41	229
42	23
43	289
44	291
45	961
46	411
47	259
48	192
49	293
50	11
51	11
52	0
53	5
54	4
55	16
56	0
57	24
58	67
59	87
60	35
61	807
62	186
63	41
64	13
65	2
66	0
67	6
68	0
69	1
70	0
71	6
72	4
73	46
74	130
75	197
76	17
77	13
78	1
79	0
81	1
82	0
83	1
85	13
86	0
87	40
88	15
89	10
90	10
91	39
92	999
93	51
94	40
95	2
96	0
97	0
99	8
100	1
101	9
102	1
103	72
104	4
105	30
106	38
107	3
108	1
116	0
117	13
118	25
119	10
120	1
136	128
137	8
138	6
139	0
