Mass Spectrum: 1,4-Dioxane-2,5-dione, 3,3,6,6-tetramethyl-
Formula: C8H12O4
CAS: 6713-72-0
Molecular weight: 172
m/z	intensity
27	160
28	110
31	50
39	290
40	100
41	300
42	780
43	999
44	40
58	70
59	200
60	10
70	910
71	30
