Mass Spectrum: 2-Oxaspiro[4.5]dec-6-ene-3-carboxylic acid, 3-ethoxy-1,8-dioxo-9-(phenylseleno)-, ethyl ester
Formula: C20H22O6Se
CAS: 67136-04-3
Molecular weight: 438
m/z	intensity
107	999
134	245
135	220
158	311
181	92
208	181
209	130
236	101
238	73
254	140
263	210
294	221
365	170
438	580
