Mass Spectrum: Allocolchicein
Formula: C21H23NO6
CAS: 6714-14-3
Molecular weight: 385
m/z	intensity
41	56
42	52
43	999
44	46
45	77
46	8
50	7
51	22
52	9
53	25
54	9
55	40
56	19
57	29
58	6
59	16
60	39
63	21
64	7
65	17
66	5
67	13
68	7
69	24
70	11
71	13
73	37
74	9
75	20
76	22
77	47
78	18
79	12
81	10
82	14
83	19
84	12
85	9
86	5
87	9
88	9
89	19
90	16
91	34
92	5
93	5
95	11
96	7
97	11
98	8
99	10
101	16
102	16
103	15
104	13
105	28
106	11
107	5
110	6
111	10
112	5
113	14
114	11
115	43
116	11
117	8
118	7
119	7
121	5
124	6
125	14
126	24
127	37
128	22
129	14
130	11
131	7
132	7
133	19
134	6
135	5
136	5
137	7
138	10
139	53
140	34
141	33
142	11
143	5
148	9
149	13
150	19
151	52
152	117
153	64
154	39
155	18
156	11
157	5
161	5
162	5
163	27
164	27
165	77
166	35
167	41
168	29
169	14
170	9
171	8
172	9
174	13
175	7
176	21
177	27
178	41
179	36
180	35
181	44
182	16
183	18
184	10
185	22
186	6
189	16
190	18
191	21
192	19
193	20
194	21
195	30
196	30
197	49
198	18
199	9
200	6
204	12
205	19
206	19
207	28
208	36
209	44
210	20
211	25
212	19
213	22
214	10
219	18
220	18
221	25
222	26
223	36
224	60
225	48
226	25
227	12
233	6
234	10
235	39
236	56
237	40
238	33
239	51
240	41
241	20
242	13
248	5
249	18
250	34
251	54
252	62
253	54
254	34
255	19
256	23
257	5
263	10
264	17
265	46
266	61
267	47
268	130
269	43
270	28
271	7
277	8
278	9
279	27
280	60
281	83
282	62
283	157
284	98
285	20
293	21
294	35
295	369
296	131
297	74
298	73
299	27
300	31
301	6
308	6
309	17
310	51
311	327
312	144
313	42
314	72
315	14
324	16
325	43
326	980
327	208
328	49
329	7
336	89
337	19
339	13
340	33
341	11
342	58
343	13
352	11
354	6
368	1
370	5
385	850
386	202
387	33
