Mass Spectrum: Ethynyltetrafluorphosphorane
Formula: C2HF4P
CAS: 67149-04-6
Molecular weight: 132
m/z	intensity
37	6
47	88
50	443
55	191
56	49
69	862
74	38
75	36
88	618
93	161
94	55
107	998
112	190
113	999
114	140
132	784
