Mass Spectrum: 4,7-Ethano-1H-isoindole-1,3(2H)-dione, 3a,4,7,7a-tetrahydro-
Formula: C10H11NO2
CAS: 6715-29-3
Molecular weight: 177
m/z	intensity
26	74
27	121
37	5
38	20
39	142
41	19
42	2
43	17
44	18
49	3
50	51
51	112
52	72
53	32
54	14
55	5
56	1
61	3
62	10
63	34
64	9
65	44
66	10
67	2
68	2
70	21
71	7
73	2
74	12
75	7
76	12
77	190
78	999
79	283
80	571
81	33
82	2
87	2
89	8
90	3
91	120
92	18
93	12
94	1
97	2
98	16
99	358
100	20
101	3
102	5
103	30
104	14
105	46
106	35
107	4
108	1
111	4
115	1
116	2
118	1
119	1
120	2
121	12
122	2
130	2
131	4
132	2
133	4
134	3
136	4
148	6
149	185
150	21
151	2
159	2
162	0
176	6
177	200
178	26
179	3
