Mass Spectrum: 2-Methylbenzyl p-toluate
Formula: C16H16O2
CAS: 67157-61-3
Molecular weight: 240
m/z	intensity
39	58
51	36
65	77
77	85
91	175
104	999
105	450
119	351
136	23
195	7
222	4
225	2
240	4
