Mass Spectrum: (3aR,4S,7R,7aS)-3a,7a-Dimethyloctahydro-1H-4,7-methanoindene
Formula: C12H20
CAS: 67152-02-7
Molecular weight: 164
m/z	intensity
27	55
28	29
29	73
37	5
39	199
40	25
41	303
42	24
43	69
51	55
52	26
53	125
54	27
55	396
56	20
57	35
58	6
59	7
61	8
63	11
64	10
65	75
66	38
67	448
68	83
69	82
70	10
71	15
77	159
78	41
79	283
80	47
81	676
82	89
83	24
84	7
91	166
92	36
93	224
94	205
95	411
96	999
97	586
98	38
105	51
106	9
107	116
108	75
109	103
110	23
112	5
120	41
121	105
122	58
123	579
124	51
129	7
135	12
136	17
137	8
149	257
150	31
164	28
