Mass Spectrum: 1-Phenylthio-1-acetoxy-2-butanone
Formula: C12H14O3S
CAS: 67175-44-4
Molecular weight: 238
m/z	intensity
15	20
18	10
27	20
28	20
29	70
39	20
43	999
44	40
45	50
50	10
51	30
57	100
58	10
65	40
66	20
69	20
77	40
78	10
84	10
101	10
109	50
110	150
111	40
112	10
121	20
123	20
138	10
139	170
140	20
141	10
150	5
151	10
152	10
153	30
178	2
179	10
181	170
182	20
183	10
195	10
238	60
239	10
