Mass Spectrum: Butane, 1,4-dichloro-2,3-bis(trimethylsiloxy)-
Formula: C10H24Cl2O2Si2
CAS: 67177-73-5
Molecular weight: 302
m/z	intensity
28	43
29	21
39	15
41	24
43	242
44	31
45	189
46	17
47	47
49	14
51	12
53	22
55	17
57	18
58	19
59	131
60	15
61	22
63	19
65	39
66	11
67	15
69	23
70	9
71	14
72	45
73	982
74	83
75	129
76	14
77	17
79	39
81	16
85	11
87	14
88	9
92	9
93	227
94	21
95	109
96	9
97	14
99	10
101	513
102	53
103	101
104	11
105	14
115	15
116	999
117	123
118	42
121	14
123	21
125	11
129	13
130	8
131	24
133	25
135	20
143	9
147	382
148	63
149	67
150	13
151	112
152	8
153	41
163	11
165	19
167	34
169	15
171	32
179	42
181	17
225	15
253	26
255	12
287	14
289	11
