Mass Spectrum: Ethanimidamide, N-(1-amino-2,2,2-trichloroethylidene)-2,2,2-trichloro-
Formula: C4H3Cl6N3
CAS: 67172-64-9
Molecular weight: 303
m/z	intensity
24	1
25	1
26	2
27	101
28	454
29	2
30	1
35	110
36	252
38	110
40	3
42	143
43	999
45	1
47	370
48	76
49	127
51	1
52	2
53	202
54	3
55	1
56	1
59	1
60	1
61	3
62	219
64	68
65	2
66	2
67	1
68	127
69	1
70	1
71	1
73	68
75	118
76	3
78	1
79	1
82	320
83	68
84	194
85	3
87	1
88	1
90	2
91	1
92	1
94	1
95	1
96	1
97	1
98	59
99	1
101	1
102	1
103	1
104	1
106	1
109	185
110	93
111	127
113	3
114	1
115	1
116	1
117	135
118	1
119	135
120	1
121	59
122	1
123	110
124	1
125	76
126	1
127	2
128	1
129	1
131	1
133	1
134	1
135	1
136	1
137	1
138	1
139	1
140	1
144	2
145	1
146	2
147	1
148	1
149	1
151	135
153	93
154	2
155	2
156	1
157	1
158	1
159	2
160	1
161	2
162	1
163	1
164	1
165	1
166	1
167	1
168	1
170	1
171	1
172	1
173	1
174	1
175	1
178	1
180	1
182	1
183	1
184	1
185	1
186	404
187	3
188	387
189	3
190	135
191	1
192	2
193	1
197	1
198	1
199	1
200	1
201	1
202	1
206	1
207	1
208	1
210	1
212	1
232	1
233	1
234	1
235	1
236	1
237	1
238	1
241	1
242	1
243	2
244	1
245	1
246	1
247	1
249	1
303	1
305	1
307	1
309	1
