Mass Spectrum: Acetamide, N-[3-(2-oxoazacyclotridec-1-yl)propyl]-
Formula: C17H32N2O2
CAS: 67171-81-7
Molecular weight: 296
m/z	intensity
70	250
84	150
98	170
100	750
112	190
115	220
129	999
155	500
182	800
196	370
210	450
224	850
225	250
253	170
268	900
281	50
296	550
