Mass Spectrum: N-[1-[4-Amino-6-(dimethylamino)-1,3,5-triazin-2-yl]-2-(benzylsulfanyl)ethyl]benzamide  #
Formula: C21H24N6OS
CAS: 67173-57-3
Molecular weight: 408
m/z	intensity
41	128
43	109
44	189
45	110
51	48
55	48
56	60
57	120
65	111
71	157
77	367
91	637
92	60
105	999
106	78
124	109
150	60
166	130
167	29
179	101
181	160
196	130
207	99
271	49
283	110
284	323
285	101
286	101
317	884
318	161
