Mass Spectrum: Nandrolone, TMS derivative
Formula: C21H34O2Si
CAS: 6717-72-2
Molecular weight: 346
m/z	intensity
41	315
43	132
44	24
45	260
46	6
47	72
50	1
51	14
52	14
53	97
54	18
55	264
56	12
57	22
58	14
59	111
60	14
61	70
62	5
63	6
64	3
65	60
66	22
67	162
68	20
69	37
70	6
71	15
73	999
74	93
75	390
76	29
77	162
78	40
79	213
80	34
81	100
82	10
83	16
84	1
85	22
86	4
87	7
88	1
89	13
90	2
91	245
92	42
93	110
94	24
95	56
96	1
97	31
98	2
99	15
101	127
102	14
103	31
104	17
105	120
106	27
107	74
108	27
109	29
110	59
111	13
113	11
115	102
116	76
117	71
118	22
119	65
120	39
121	27
122	33
123	18
124	9
125	2
126	1
127	8
129	612
130	114
131	91
132	22
133	48
134	32
135	45
136	8
137	2
139	2
141	11
142	9
143	24
144	23
145	40
146	52
147	62
148	38
149	13
150	3
151	22
153	3
154	2
155	11
156	6
157	19
158	11
159	25
160	97
161	28
162	9
163	3
165	4
167	5
168	2
169	9
170	7
171	15
172	11
173	18
174	10
175	4
179	2
180	4
181	10
182	16
183	13
184	7
185	21
186	19
187	14
188	4
189	1
193	1
194	3
195	11
196	8
197	12
198	7
199	26
200	11
201	6
206	3
207	17
208	2
209	4
210	3
211	2
212	35
213	21
214	27
215	49
216	8
217	1
221	2
222	5
223	8
224	2
227	6
228	15
229	4
230	3
233	4
234	2
235	2
236	3
237	2
238	13
239	4
240	1
241	7
242	1
244	3
247	2
255	8
256	97
257	19
258	1
261	3
262	2
267	1
275	5
276	1
281	4
283	1
289	2
290	11
291	3
303	7
304	4
311	1
328	1
331	23
332	6
333	1
341	1
346	39
347	11
348	3
