Mass Spectrum: Heptanamide, N-hexyl-N-[3-(methylamino)propyl]-
Formula: C17H36N2O
CAS: 67178-87-4
Molecular weight: 284
m/z	intensity
58	999
70	400
87	160
101	160
114	560
128	500
142	310
156	360
170	250
171	250
184	310
214	220
227	150
241	60
254	150
284	250
