Mass Spectrum: Thieno[2,3-d]-1,3-dithiol-2-thione
Formula: C5H2S4
CAS: 67188-88-9
Molecular weight: 190
m/z	intensity
45	310
57	70
58	60
68	80
69	999
70	430
71	70
76	260
81	80
82	50
88	250
100	50
101	60
114	350
115	30
116	30
126	50
146	140
148	20
190	480
191	50
192	90
193	10
194	10
