Mass Spectrum: Thiazolidine, 5-methyl-2-phenyl-
Formula: C10H13NS
CAS: 67189-38-2
Molecular weight: 179
m/z	intensity
41	101
51	141
59	99
74	91
77	178
91	448
102	99
104	210
105	50
106	369
118	999
119	269
121	110
122	20
146	119
179	320
