Mass Spectrum: 9-Thianoradamantane 9,9-dioxide
Formula: C8H12O2S
CAS: 67194-74-5
Molecular weight: 172
m/z	intensity
39	995
41	827
52	241
54	245
65	283
66	414
67	990
68	138
78	234
79	200
80	890
81	759
87	192
92	397
94	190
106	169
108	999
109	155
139	224
156	241
172	105
173	29
174	14
