Mass Spectrum: 9-Thiabicyclo[3.3.1]nonan-3-one 9,9-dioxide
Formula: C8H12O3S
CAS: 67194-71-2
Molecular weight: 188
m/z	intensity
39	860
42	995
53	456
54	985
55	970
68	980
69	817
82	999
96	250
97	200
122	222
124	89
188	373
189	44
190	24
