Mass Spectrum: 2-Aminocyanoacetamide
Formula: C3H5N3O
CAS: 6719-21-7
Molecular weight: 99
m/z	intensity
33	10
38	16
39	19
40	15
41	5
44	336
46	0
51	0
53	71
56	999
67	5
68	0
73	9
