Mass Spectrum: Metyrosine
Formula: C10H13NO3
CAS: 672-87-7
Molecular weight: 195
m/z	intensity
38	3
39	20
40	5
41	14
42	226
43	35
44	11
45	18
46	1
47	1
50	11
51	33
52	19
53	31
54	5
55	17
56	13
57	25
58	2
60	10
61	1
62	6
63	20
64	6
65	16
66	9
67	6
68	3
69	1
70	14
71	8
74	4
75	17
76	4
77	159
78	37
79	38
80	11
81	8
82	1
87	3
88	999
89	53
90	12
91	12
92	2
93	3
94	8
95	3
103	11
104	5
105	38
106	10
107	471
108	221
109	16
110	1
115	6
117	3
118	4
119	4
120	8
121	3
123	1
131	9
132	6
133	33
134	16
135	17
146	1
147	1
148	3
149	14
150	111
151	11
195	36
196	5
