Mass Spectrum: (2S,6R,7S,8S)-2-Allyl-7-vinyl-1-azaspiro[5.5]undecan-8-ol
Formula: C15H25NO
CAS: 67217-84-9
Molecular weight: 235
m/z	intensity
51	18
52	16
53	104
54	79
55	199
56	204
57	73
65	68
66	33
67	174
68	88
69	55
70	119
71	12
72	5
77	116
78	32
79	200
80	98
81	144
82	118
83	40
84	21
86	7
91	145
92	28
93	83
94	111
95	64
96	999
97	82
103	8
104	13
105	68
106	40
107	49
108	138
109	51
110	122
111	17
115	7
117	50
118	16
119	17
120	42
121	23
122	133
123	32
124	153
125	18
131	27
132	14
133	57
134	44
135	26
136	52
137	82
138	30
139	10
145	4
146	9
148	29
150	342
151	85
152	34
156	23
157	4
159	30
160	11
161	5
162	17
164	125
165	20
166	127
167	15
174	22
176	257
177	46
178	23
180	7
181	12
188	6
190	7
192	89
194	790
195	105
202	9
216	5
218	98
219	20
220	74
221	12
234	8
235	50
236	10
