Mass Spectrum: 2-Phenylmethane)sulfonyl-1,3-benzothiazole
Formula: C14H11NO2S2
CAS: 67219-33-4
Molecular weight: 289
m/z	intensity
36	6
37	9
38	26
39	174
40	10
41	26
44	8
45	24
48	18
50	40
51	51
52	19
57	5
58	5
60	3
62	18
63	101
64	50
65	259
66	11
69	38
70	5
74	8
75	15
76	10
77	7
78	7
81	7
82	17
83	2
89	60
90	87
91	999
92	78
93	5
106	4
107	24
108	20
109	3
133	13
134	80
135	23
136	4
223	12
224	169
225	71
226	13
227	3
289	27
290	4
291	2
