Mass Spectrum: 5,8-Tridecadione
Formula: C13H24O2
CAS: 67238-16-8
Molecular weight: 212
m/z	intensity
41	610
42	243
43	999
44	87
45	20
46	1
47	3
48	5
49	13
50	4
51	17
52	9
53	124
54	31
55	630
56	204
57	906
58	88
59	15
60	2
61	1
62	0
63	2
64	0
65	15
66	7
67	104
68	15
69	126
70	92
71	953
72	190
73	22
74	1
75	1
76	0
77	17
78	3
79	29
80	13
81	192
82	19
83	98
84	45
85	963
86	78
87	15
88	2
89	0
91	13
92	0
93	46
94	10
95	420
96	37
97	42
98	176
99	784
100	66
101	27
102	1
103	1
104	0
105	5
106	1
107	8
109	105
110	13
111	31
112	117
113	553
114	767
115	72
116	6
117	1
118	0
119	27
120	3
121	2
122	0
123	36
124	4
125	5
127	780
128	98
129	17
130	1
131	0
132	0
133	1
134	1
135	2
137	50
138	6
139	4
141	766
142	76
143	6
144	0
145	0
146	0
147	1
149	1
151	18
152	3
153	2
155	448
156	607
157	64
158	5
159	0
161	0
162	0
163	1
164	0
165	3
166	0
167	0
169	66
170	391
171	42
172	3
173	0
174	0
175	0
176	0
177	0
178	0
179	0
181	0
183	48
184	9
185	1
187	0
188	0
189	0
190	0
191	0
192	1
193	0
194	4
195	4
196	0
197	2
198	0
205	0
207	0
208	0
209	0
210	0
211	3
212	37
213	5
