Mass Spectrum: Benzoic acid, 3-methoxy-4-[(methylsulfonyl)oxy]-
Formula: C9H10O6S
CAS: 67258-10-0
Molecular weight: 246
m/z	intensity
51	570
52	150
53	150
62	110
63	170
65	110
68	180
77	180
79	999
81	170
95	190
96	180
111	370
121	180
139	150
167	550
168	140
246	280
