Mass Spectrum: (E)-Prop-1-en-1-yl propanedithioate
Formula: C6H10S2
CAS: 67269-06-1
Molecular weight: 146
m/z	intensity
26	5
27	23
29	15
37	8
38	18
39	158
40	10
41	101
42	5
44	7
45	571
46	46
47	94
48	16
49	6
57	22
58	61
59	21
61	21
68	8
69	61
70	8
71	164
72	121
73	999
74	64
75	51
76	21
77	22
78	5
81	7
85	7
89	5
97	6
98	9
103	12
116	13
131	411
132	30
133	36
134	3
145	5
146	139
147	14
148	12
