Mass Spectrum: Dodecanoic acid, 10-oxo-
Formula: C12H22O3
CAS: 673-85-8
Molecular weight: 214
m/z	intensity
26	23
27	382
28	80
29	875
30	24
31	37
39	166
40	16
41	559
42	109
43	435
44	16
45	105
51	9
53	64
54	40
55	636
56	67
57	999
58	55
59	51
60	98
61	8
65	9
66	8
67	89
68	47
69	387
70	38
71	40
72	947
73	317
74	18
77	9
79	66
80	22
81	102
82	23
83	114
84	66
85	153
86	22
87	23
91	9
93	41
94	20
95	76
96	42
97	276
98	131
99	29
100	6
101	26
107	45
108	6
109	9
111	66
112	51
113	19
115	12
121	121
122	19
123	11
124	134
125	113
126	20
131	10
132	9
139	181
140	30
141	10
142	26
143	9
149	17
150	6
155	7
167	29
168	21
178	20
185	176
186	23
196	38
197	11
214	37
215	9
