Mass Spectrum: D-Phenylalanine
Formula: C9H11NO2
CAS: 673-06-3
Molecular weight: 165
m/z	intensity
41	28
42	46
43	31
44	14
45	18
46	78
49	9
50	23
51	63
52	17
53	9
54	4
55	3
56	11
57	5
59	24
60	98
62	11
63	35
64	11
65	105
66	7
67	2
74	999
75	12
76	19
77	70
78	17
79	5
80	3
82	0
84	6
86	5
87	2
88	2
89	26
91	550
92	135
93	23
94	2
101	1
102	7
103	77
104	23
105	2
116	2
117	12
118	31
119	15
120	501
121	42
131	1
132	0
147	5
148	6
149	0
165	16
166	2
167	0
