Mass Spectrum: 1H-Imidazole-4-ethanamine, N-methyl-
Formula: C6H11N3
CAS: 673-50-7
Molecular weight: 125
m/z	intensity
28	270
29	30
30	50
39	80
41	100
42	150
43	60
44	959
52	40
53	20
54	130
55	130
56	50
66	10
67	10
68	50
80	10
81	330
82	999
83	150
95	90
109	20
110	20
125	30
