Mass Spectrum: 1-Butanesulfinic acid, methyl ester
Formula: C5H12O2S
CAS: 673-80-3
Molecular weight: 136
m/z	intensity
39	155
40	5
41	765
42	26
43	119
44	4
55	256
56	12
57	999
58	46
59	1
65	109
66	1
67	5
79	199
80	456
81	9
82	22
83	2
105	112
106	9
136	179
137	12
138	9
139	1
