Mass Spectrum: 2-Benzoyl-3,4-acetone-d-galactosan
Formula: C16H18O6
CAS: 67307-84-0
Molecular weight: 306
m/z	intensity
41	139
42	31
43	467
44	39
45	35
47	7
48	0
49	2
50	44
51	152
52	12
53	18
54	6
55	76
56	7
57	126
58	10
59	108
60	12
61	7
62	1
63	2
64	1
65	3
66	1
67	1
68	19
69	112
70	24
71	36
72	5
73	18
74	7
75	8
76	25
77	394
78	28
79	4
81	42
82	5
83	14
84	4
85	51
86	5
87	2
89	1
91	6
92	1
95	4
96	13
97	73
98	20
99	7
100	29
101	7
102	0
103	1
105	999
106	0
107	4
109	8
110	2
111	1
113	5
114	4
115	2
121	0
122	3
123	4
124	1
126	28
127	30
128	3
129	1
138	1
139	1
141	2
143	34
144	2
145	1
147	28
148	2
149	0
153	1
155	3
156	0
163	0
169	1
170	1
186	128
187	12
188	1
202	1
205	4
291	36
292	5
306	1
