Mass Spectrum: Fenpropidin
Formula: C19H31N
CAS: 67306-00-7
Molecular weight: 273
m/z	intensity
41	37
42	51
44	24
55	31
56	14
69	12
70	135
77	10
79	16
82	10
84	12
91	56
96	39
98	999
99	77
104	10
105	23
110	17
115	48
116	17
117	155
119	13
124	13
128	26
129	18
131	32
132	29
143	11
145	164
146	16
147	25
159	29
160	33
173	57
174	14
187	13
273	29
