Mass Spectrum: Methyl 4-O-acetyl-2,3,6-tri-O-methyl-.alpha.-D-galactopyranoside
Formula: C12H22O7
CAS: 67310-40-1
Molecular weight: 278
m/z	intensity
42	25
43	349
44	23
45	209
47	11
53	14
54	10
55	38
56	10
59	57
60	5
61	12
68	9
69	20
70	8
71	99
72	12
74	83
75	839
76	32
77	7
81	18
83	16
84	64
85	129
86	9
87	139
88	999
89	67
95	18
97	16
98	10
99	48
100	8
101	139
102	21
103	24
109	7
111	35
112	8
113	48
114	17
115	45
116	21
117	67
127	48
128	11
129	45
130	6
131	21
141	13
143	14
144	7
145	10
149	22
155	35
159	8
161	6
173	14
186	13
187	7
204	38
205	5
215	7
247	12
248	1
