Mass Spectrum: Cholesteryl hydrogen phthalate
Formula: C35H50O4
CAS: 6732-01-0
Molecular weight: 534
m/z	intensity
27	36
29	121
31	1
36	5
37	91
38	138
39	36
40	4
41	299
42	23
43	507
44	16
48	3
49	49
50	439
51	23
52	58
53	56
54	5
55	398
56	29
57	297
58	10
60	3
61	17
62	9
63	7
65	18
66	7
67	218
68	30
69	230
70	16
71	135
72	4
73	43
74	167
75	99
76	830
77	122
78	20
79	229
80	34
81	355
82	40
83	134
84	7
85	23
91	235
92	57
93	261
94	79
95	347
96	35
97	74
98	2
103	11
104	999
105	291
106	81
107	364
108	84
109	167
110	17
111	47
112	1
113	3
114	3
115	16
116	11
117	85
118	54
119	208
120	173
121	190
122	43
123	77
124	34
125	44
126	1
127	2
128	18
129	48
130	27
131	141
132	49
133	201
134	71
135	167
136	34
137	32
138	17
139	5
141	8
142	10
143	100
144	50
145	299
146	71
147	167
148	376
149	128
150	14
151	31
155	7
156	6
157	64
158	79
159	205
160	112
161	167
162	44
163	133
164	21
165	21
169	6
170	3
171	65
172	25
173	103
174	35
175	44
176	18
177	33
178	86
179	22
183	6
184	3
185	60
186	28
187	65
188	14
189	30
190	5
191	32
192	7
193	26
194	2
197	11
198	3
199	76
200	23
201	41
202	7
203	14
204	3
205	29
206	22
207	17
208	3
211	3
212	1
213	234
214	64
215	48
216	10
217	18
218	7
219	27
220	20
221	2
227	38
228	59
229	59
230	11
231	142
232	40
233	18
234	4
239	5
241	24
242	4
243	4
245	20
246	40
247	111
248	28
249	1
253	2
254	2
255	196
256	39
257	10
259	14
260	25
261	28
262	12
269	1
271	11
272	9
273	161
274	118
275	505
276	112
277	9
283	8
285	2
286	1
287	11
288	5
299	5
300	19
301	311
302	73
303	7
311	9
313	20
314	18
315	9
316	3
325	3
326	45
327	30
328	13
329	31
330	6
339	4
340	6
342	7
343	9
344	1
351	2
353	279
354	78
355	10
357	3
367	9
368	393
369	116
370	18
371	283
372	77
373	9
384	5
385	8
386	902
387	269
388	38
