Mass Spectrum: Bicyclo[2.2.0]hexa-2,5-diene,1,2,3,4,5,6-hexafluoro-
Formula: C6F6
CAS: 6733-01-3
Molecular weight: 186
m/z	intensity
31	512
48	24
55	59
69	313
74	143
86	71
93	421
98	85
105	48
117	999
124	35
136	220
148	11
155	378
167	97
186	937
