Mass Spectrum: 3-Carbamoyl-2-pyrazinecarboxylic acid
Formula: C6H5N3O3
CAS: 67367-37-7
Molecular weight: 167
m/z	intensity
12	2
14	1
16	15
17	16
18	29
24	4
25	10
26	192
27	17
28	196
29	9
36	2
37	4
38	20
39	27
40	26
41	24
42	13
43	15
44	488
45	52
46	4
48	1
50	19
51	165
52	542
53	567
54	33
55	2
60	1
62	1
64	2
65	2
66	6
67	15
68	35
69	16
70	35
71	2
76	9
77	36
78	293
79	286
80	999
81	55
82	1
85	1
93	2
94	4
95	9
96	13
97	13
104	1
105	51
106	199
107	25
108	1
120	3
121	1
122	5
123	963
124	131
125	9
132	1
149	114
150	36
151	7
167	9
168	11
169	1
