Mass Spectrum: Azacycloundecan-2-one, 1-(3-aminopropyl)-
Formula: C13H26N2O
CAS: 67370-80-3
Molecular weight: 226
m/z	intensity
55	999
70	550
84	300
87	480
98	270
100	230
112	300
126	540
140	670
154	330
168	410
182	380
196	450
208	150
226	650
