Mass Spectrum: Acetic acid, hydroxy[(1-oxo-2-propenyl)amino]-
Formula: C5H7NO4
CAS: 6737-24-2
Molecular weight: 145
m/z	intensity
41	13
42	42
43	102
44	999
45	96
46	20
47	4
48	11
49	10
50	1
51	10
52	14
53	23
54	18
55	244
56	14
57	4
58	17
59	5
60	24
64	14
70	12
71	180
72	102
73	14
74	4
75	9
80	13
84	9
86	5
88	3
99	12
100	4
145	3
