Mass Spectrum: 2-[(Z)-6-Octadecenylamino]pyridine
Formula: C23H40N2
CAS: 67374-02-1
Molecular weight: 344
m/z	intensity
41	141
42	11
43	163
53	11
54	14
55	112
56	11
57	48
65	104
66	11
67	31
72	14
77	166
78	5
79	70
80	39
81	31
82	11
93	31
94	593
95	163
107	999
108	240
119	494
120	90
121	211
122	31
133	73
134	19
135	39
136	19
147	31
149	271
150	31
163	14
175	42
176	5
189	39
203	214
204	31
217	62
218	8
231	19
232	2
245	13
246	4
247	2
259	19
260	4
261	1
273	19
274	5
275	1
287	17
288	4
289	1
300	2
301	13
302	2
315	10
316	3
328	40
329	18
330	3
341	2
342	2
343	45
344	100
345	34
346	4
