Mass Spectrum: 3-[(Z)-9-Octadecenylamino]pyridine
Formula: C23H40N2
CAS: 67374-03-2
Molecular weight: 344
m/z	intensity
41	144
42	5
43	104
44	11
45	8
51	8
53	8
54	8
55	127
56	16
57	36
67	48
68	5
69	48
71	8
73	64
78	67
79	16
80	19
81	28
83	8
93	8
94	169
95	56
105	8
106	8
107	999
108	169
109	11
119	17
120	38
121	100
122	17
123	4
131	2
132	1
133	38
134	13
135	48
136	18
137	1
147	22
148	2
149	38
150	11
163	34
164	7
176	4
177	28
178	18
179	4
191	58
192	48
193	8
205	14
206	8
217	4
218	2
219	6
220	4
221	8
231	15
232	4
233	2
245	80
246	28
247	4
259	191
260	38
261	5
273	13
274	8
275	1
287	21
288	6
301	19
302	5
315	19
316	4
329	7
342	5
343	33
344	151
345	39
346	5
