Mass Spectrum: Acetamide, N-[3-(2-oxoazacycloundec-1-yl)propyl]-
Formula: C15H28N2O2
CAS: 67370-81-4
Molecular weight: 268
m/z	intensity
56	400
70	170
84	100
100	500
115	150
129	999
140	200
154	340
168	250
182	420
196	440
211	230
225	200
240	200
253	40
268	550
