Mass Spectrum: Pyrazol-5(4H)-one, 4-(4-methoxy-3-nitrobenzylideno)-3-methyl-1-phenyl-
Formula: C18H15N3O4
CAS: 67376-76-5
Molecular weight: 337
m/z	intensity
33	0
35	0
36	0
37	2
38	11
39	46
40	10
42	16
43	9
44	1
45	2
46	2
48	0
50	46
51	211
53	35
54	2
55	1
57	1
58	0
59	0
60	1
61	5
62	38
63	96
64	68
65	54
66	8
67	2
68	0
69	1
70	0
71	0
74	30
75	59
77	999
78	90
79	8
80	1
81	1
82	2
83	2
85	1
86	12
87	32
88	51
89	97
90	31
91	229
92	23
93	8
94	2
95	5
97	5
98	5
99	7
100	14
101	54
102	127
103	43
104	17
105	36
106	18
107	3
109	7
110	10
111	3
112	3
113	25
114	37
115	132
116	49
117	24
118	38
119	13
120	2
121	1
122	1
123	8
124	18
125	7
126	47
127	158
128	298
129	130
130	33
131	27
132	14
133	5
134	1
135	1
136	0
137	1
138	6
139	5
140	5
141	6
142	17
143	43
144	16
145	13
146	8
147	1
148	0
149	0
150	2
151	4
152	4
153	3
154	4
155	6
156	11
157	16
158	8
159	8
160	4
161	3
163	3
164	3
165	10
166	5
167	4
168	18
169	14
170	4
171	5
172	7
173	3
174	3
175	1
176	2
177	2
178	7
179	4
180	2
181	1
183	14
185	589
186	69
187	5
188	1
189	3
190	7
191	7
192	5
193	3
194	2
195	1
196	0
198	1
199	0
200	0
201	1
202	3
204	70
205	10
206	3
207	4
208	1
209	1
210	0
214	0
215	0
216	1
217	2
218	5
219	5
220	4
221	1
222	1
223	0
229	0
230	1
231	3
232	5
233	3
234	1
235	1
236	1
237	0
243	0
245	0
246	1
247	2
248	4
249	1
250	0
251	0
255	0
257	0
259	4
260	9
261	36
262	8
263	2
264	0
273	0
274	1
275	1
276	2
277	1
278	0
279	0
286	0
287	0
289	13
290	6
291	3
292	0
303	0
304	0
305	0
306	0
308	0
309	0
320	0
321	0
328	0
329	0
330	1
331	2
332	4
333	6
335	27
336	28
337	135
338	27
339	3
340	0
