Mass Spectrum: Methyl 4-hydroxy-trans-2-hexadecenoate
Formula: C17H32O3
CAS: 67373-90-4
Molecular weight: 284
m/z	intensity
55	692
57	464
59	109
61	77
67	161
69	257
71	189
79	77
80	85
81	174
83	288
84	374
85	119
87	999
88	96
91	42
93	70
94	57
95	125
96	51
97	182
98	202
99	53
107	46
108	44
109	83
111	175
112	55
113	97
115	607
116	295
130	198
139	65
140	80
141	41
143	82
192	119
193	58
197	53
206	43
210	95
211	94
223	29
224	37
225	15
252	29
253	56
255	267
256	51
266	27
284	40
