Mass Spectrum: 2-(Hexadecylamino)thiazole
Formula: C19H36N2S
CAS: 67383-70-4
Molecular weight: 324
m/z	intensity
41	337
42	48
43	390
44	11
45	8
52	8
53	11
55	291
56	39
57	138
58	50
59	67
66	16
67	2
68	79
69	16
71	2
72	19
80	11
82	25
83	11
84	11
85	121
87	2
95	2
96	2
97	8
99	50
100	999
101	189
102	39
109	19
110	2
112	16
113	696
114	311
115	39
116	5
123	11
124	2
125	19
126	42
127	150
128	42
129	2
137	2
139	2
140	16
141	59
142	189
143	11
144	11
153	2
154	2
155	342
156	82
157	11
169	138
170	19
171	2
183	82
184	2
197	59
198	2
207	5
211	50
212	5
218	5
225	42
226	2
239	42
240	2
250	70
251	11
253	42
254	5
267	45
268	2
281	31
282	11
291	62
292	2
295	31
296	2
308	56
309	19
310	5
323	70
324	152
325	31
326	5
