Mass Spectrum: Ethanone, 1-[4-(hydroxymethyl)-2-phenyl-5-thiazolyl]-
Formula: C12H11NO2S
CAS: 67387-02-4
Molecular weight: 233
m/z	intensity
43	999
44	140
45	100
50	50
51	140
57	90
58	150
59	300
69	100
70	140
71	70
76	80
77	320
84	80
86	50
87	300
88	60
103	120
104	450
105	750
106	50
110	60
121	220
130	10
162	140
188	80
190	310
204	240
215	50
216	40
217	40
218	50
232	40
233	750
234	100
235	50
