Mass Spectrum: Acetamide, N-(2-chlorobenzofuran-3-yl)-
Formula: C10H8ClNO2
CAS: 67382-11-0
Molecular weight: 209
m/z	intensity
34	1
35	8
36	16
37	48
38	60
39	62
40	20
41	26
42	102
43	999
44	19
45	2
47	13
48	6
49	38
50	232
51	130
52	50
53	11
54	2
57	0
59	0
60	7
61	33
62	41
63	73
64	20
65	19
66	1
71	2
72	5
73	32
74	98
75	217
76	368
77	138
78	12
84	6
85	13
86	14
87	10
88	6
89	7
90	4
91	4
92	2
93	0
96	3
97	7
98	2
99	9
100	14
102	347
103	167
104	248
105	24
110	3
111	12
112	6
113	4
114	4
115	0
116	2
117	0
118	0
119	0
120	3
121	1
123	4
125	1
128	1
130	5
132	17
133	3
136	7
137	39
138	461
139	359
140	170
141	104
142	7
145	0
146	5
147	0
159	0
160	13
161	1
164	2
167	802
168	87
169	262
170	17
171	1
172	4
173	0
174	1
175	14
176	0
180	1
193	2
194	1
195	0
204	0
207	2
209	292
210	38
211	89
212	9
