Mass Spectrum: Ethanone, 1-[4-(hydroxymethyl)-2-(4-methylphenyl)-5-thiazolyl]-
Formula: C13H13NO2S
CAS: 67387-03-5
Molecular weight: 247
m/z	intensity
43	999
44	440
45	100
57	50
58	150
59	300
65	120
69	70
70	120
71	60
84	80
86	50
87	300
88	80
89	90
90	80
91	260
110	50
116	100
117	110
118	520
119	800
120	80
130	30
135	190
176	140
202	80
204	320
218	250
232	40
246	50
247	610
248	100
