Mass Spectrum: Hydrazine, 1,1-diethyl-2-(1-methylpropyl)-
Formula: C8H20N2
CAS: 67398-40-7
Molecular weight: 144
m/z	intensity
27	63
28	61
29	149
30	49
31	63
39	13
40	6
41	49
42	114
43	23
44	137
45	18
55	14
56	36
57	46
58	49
59	434
60	17
70	10
71	17
72	85
73	62
87	999
88	59
99	8
115	99
116	8
129	40
144	266
145	32
