Mass Spectrum: Hydrazine, 1,1-dimethyl-2-pentyl-
Formula: C7H18N2
CAS: 67398-36-1
Molecular weight: 130
m/z	intensity
27	37
28	34
29	41
30	76
31	52
32	20
39	17
40	4
41	71
42	75
43	90
44	90
45	76
46	44
55	8
56	8
57	16
58	10
59	999
60	52
69	5
70	5
71	14
72	8
73	387
74	18
84	5
86	8
115	22
129	5
130	293
131	35
