Mass Spectrum: Hydrazine, 1,1-diethyl-2-pentyl-
Formula: C9H22N2
CAS: 67398-41-8
Molecular weight: 158
m/z	intensity
27	58
28	39
29	122
30	110
31	49
32	10
39	17
41	58
42	84
43	122
44	116
45	23
46	5
55	15
56	51
57	34
58	65
59	245
60	16
69	10
70	15
71	28
72	36
73	226
74	14
84	9
85	16
86	21
87	999
88	52
99	5
100	6
101	129
102	9
115	4
129	130
130	13
143	180
144	21
157	8
158	335
159	53
