Mass Spectrum: Hydrazine, 1,1-diethyl-2-(1-methylethyl)-
Formula: C7H18N2
CAS: 67398-39-4
Molecular weight: 130
m/z	intensity
27	83
28	72
29	124
30	65
31	93
39	13
40	9
41	53
42	124
43	81
44	103
45	24
56	42
57	18
58	93
59	537
60	21
70	9
71	22
72	56
73	46
85	11
86	8
87	999
88	60
99	24
101	49
113	6
114	9
115	74
116	6
129	4
130	371
131	44
