Mass Spectrum: Hydrazine, 1-ethyl-1-(2-methylpropyl)-
Formula: C6H16N2
CAS: 67398-35-0
Molecular weight: 116
m/z	intensity
27	51
28	67
29	83
30	92
31	26
39	28
41	61
42	43
43	43
44	83
45	266
46	7
54	5
55	10
56	64
57	38
58	20
59	30
70	3
71	4
72	4
73	999
74	48
84	5
101	14
115	4
116	142
117	18
