Mass Spectrum: Mono-sec-butyl carbonotrithioate
Formula: C5H10S3
CAS: 67395-45-3
Molecular weight: 166
m/z	intensity
27	158
29	273
39	97
41	356
43	39
44	160
45	38
46	18
47	57
55	63
56	140
57	285
61	195
66	3
75	12
76	999
90	166
110	12
122	8
133	6
