Mass Spectrum: 2-Amino-8-[3-d-ribofuranosyl]imidazo[1,2-a]-s-triazin-4-one
Formula: C10H13N5O5
CAS: 67410-65-5
Molecular weight: 283
m/z	intensity
41	265
42	653
43	999
44	863
45	275
46	11
47	75
49	59
50	15
51	29
52	46
53	192
54	148
55	429
56	288
57	840
58	129
59	32
60	334
61	172
62	9
66	32
67	56
68	255
69	283
70	66
71	268
72	95
73	482
74	106
75	9
77	12
79	22
80	15
81	83
82	84
83	334
84	128
85	107
86	138
87	24
93	15
94	50
95	44
96	48
97	58
98	11
101	10
102	22
103	23
105	12
107	50
108	401
109	147
110	39
111	10
113	38
114	59
115	29
119	12
120	15
121	22
122	13
125	55
126	10
127	11
133	46
135	26
143	12
149	86
150	84
151	849
152	111
159	9
162	23
164	24
173	9
175	38
178	20
180	11
194	22
283	19
