Mass Spectrum: 1-Oxo-1,2,3,4-tetrahydronaphthalene-2-carboxylic acid, ethyl ester
Formula: C13H14O3
CAS: 6742-26-3
Molecular weight: 218
m/z	intensity
25	24
26	145
27	385
28	68
29	442
30	53
31	369
35	10
36	8
37	22
38	60
39	222
40	36
41	59
42	36
43	99
44	79
45	159
46	69
47	10
49	25
50	131
51	180
52	37
53	60
54	40
55	97
56	12
57	27
58	23
59	9
61	37
62	135
63	342
64	104
65	138
66	21
67	13
68	18
69	23
70	12
71	17
72	14
73	17
74	88
75	84
76	62
77	124
78	44
79	25
80	7
81	10
82	7
83	8
84	13
85	22
86	61
87	91
88	70
89	600
90	932
91	336
92	36
93	17
94	14
95	18
97	10
98	17
99	13
101	22
102	56
103	51
104	49
105	80
106	13
109	9
110	12
113	58
114	94
115	999
116	603
117	303
118	912
119	113
120	24
126	14
127	99
128	49
129	18
130	16
131	60
132	12
133	11
134	11
135	12
141	11
142	12
143	62
144	898
145	367
146	231
147	34
155	17
170	31
171	145
172	711
173	222
174	33
189	51
190	15
200	15
217	19
218	529
219	92
220	17
