Mass Spectrum: 2-(Isopropyldisulfanyl)butane
Formula: C7H16S2
CAS: 67421-86-7
Molecular weight: 164
m/z	intensity
15	13
24	0
25	0
26	18
27	249
29	514
30	11
33	2
34	2
35	8
36	0
37	3
38	11
39	139
40	21
41	607
42	56
43	999
44	35
45	42
46	7
47	24
48	1
49	5
50	2
51	3
52	1
53	12
54	6
55	47
56	48
57	583
58	41
59	63
60	17
61	20
62	1
63	1
64	14
65	7
66	70
67	2
68	6
69	0
70	0
71	2
72	1
73	8
74	7
75	4
76	1
77	0
78	0
79	2
80	0
81	0
85	0
86	0
87	5
88	9
89	3
90	0
91	0
92	1
93	13
94	0
95	1
103	0
105	0
106	0
107	15
108	255
109	16
110	22
111	1
112	0
120	0
121	1
122	23
123	2
124	2
125	0
135	0
162	0
163	5
164	128
165	14
166	12
167	1
168	0
