Mass Spectrum: (E,E,E)-(5-Phenylsulfonylgeranyl)geraniol
Formula: C26H38O3S
CAS: 67428-43-7
Molecular weight: 430
m/z	intensity
55	480
75	750
77	250
79	280
81	650
91	210
93	999
95	310
105	200
107	410
109	600
121	310
135	350
203	100
271	90
