Mass Spectrum: 4-Methyl-1-phenyl-1,2-dithiapentane
Formula: C10H14S2
CAS: 67421-91-4
Molecular weight: 198
m/z	intensity
39	287
40	29
41	534
42	44
43	137
44	24
45	124
46	22
50	64
51	166
52	16
53	24
55	98
56	27
57	999
58	103
59	22
63	31
64	35
65	226
66	63
69	102
77	191
78	604
79	64
82	20
91	79
97	20
108	38
109	335
110	120
111	22
122	20
141	92
142	410
143	51
144	51
198	358
199	53
200	51
