Mass Spectrum: 1,4-Dioxa-7,14-diazacyclohexadecane-6,15-dione, 7,14-dihexyl-
Formula: C24H46N2O4
CAS: 67456-24-0
Molecular weight: 426
m/z	intensity
25	2
26	13
27	96
28	138
29	246
30	322
31	65
33	2
34	2
36	4
37	3
38	5
39	62
40	15
41	518
42	377
43	999
44	584
45	169
46	23
47	3
48	2
49	1
50	7
51	11
52	5
53	35
54	39
55	590
56	323
57	322
58	301
59	72
60	74
61	16
62	3
63	7
64	5
65	16
66	9
67	73
68	64
69	154
70	238
71	133
72	126
73	105
74	33
75	24
76	15
77	31
78	22
79	41
80	23
81	117
82	80
83	180
84	222
85	174
86	96
87	64
88	36
89	19
90	5
91	21
92	13
93	22
94	18
95	44
96	98
97	87
98	272
99	83
100	180
101	49
102	58
103	13
104	10
105	15
106	12
107	19
108	19
109	24
110	128
111	82
112	580
113	115
114	304
115	56
116	24
117	9
118	6
119	9
120	20
121	15
122	19
123	19
124	84
125	59
126	259
127	87
128	173
129	45
130	39
131	9
132	6
133	7
134	8
135	13
136	15
137	13
138	65
139	59
140	198
141	87
142	154
143	32
144	25
145	7
146	6
147	7
148	8
149	79
150	23
151	14
152	59
153	44
154	221
155	111
156	96
157	25
158	49
159	9
160	15
161	5
162	5
163	6
164	18
165	13
166	36
167	27
168	144
169	63
170	123
171	26
172	42
173	8
174	5
175	4
176	3
177	4
178	14
179	11
180	113
181	213
182	296
183	96
184	197
185	51
186	85
187	19
188	13
189	3
190	3
191	4
192	10
193	8
194	38
195	22
196	59
197	44
198	133
199	38
200	55
201	15
202	12
203	7
204	32
205	8
206	11
207	11
208	32
209	18
210	182
211	56
212	85
213	36
214	29
215	9
216	17
217	11
218	10
219	6
220	8
221	10
222	17
223	70
224	77
225	78
226	62
227	32
228	55
229	16
230	12
231	7
232	2
233	3
234	2
235	5
236	6
237	15
238	16
239	81
240	89
241	39
242	52
243	20
244	24
245	11
246	3
247	3
248	2
249	4
250	7
251	12
252	8
253	70
254	78
255	45
256	33
257	26
258	24
259	8
260	4
261	3
262	7
263	4
264	5
265	12
266	9
267	83
268	44
269	63
270	28
271	34
272	42
273	10
274	3
276	2
277	2
278	3
279	10
280	15
281	53
282	24
283	89
284	43
285	39
286	54
287	14
288	4
289	2
290	2
291	5
292	16
293	15
294	5
295	23
296	9
297	234
298	56
299	60
300	15
301	10
302	4
303	4
304	2
305	5
306	3
307	10
308	4
309	81
310	28
311	81
312	20
313	66
314	14
315	16
316	5
319	2
320	3
321	28
322	11
323	131
324	34
325	55
326	17
327	182
328	39
329	61
330	13
331	3
333	3
334	2
335	4
336	2
337	22
338	8
339	265
340	68
341	183
342	51
343	18
344	4
351	118
352	33
353	40
354	14
355	101
356	25
357	4
367	143
368	43
369	173
370	46
371	8
372	2
378	2
379	5
380	3
381	171
382	44
383	250
384	66
385	16
386	3
393	2
394	2
395	11
396	13
397	160
398	64
399	14
400	3
407	2
408	7
409	2
410	2
411	14
412	5
425	23
426	213
427	68
428	13
429	3
