Mass Spectrum: Naphthalen-1,4-imine-9-carboxylic acid, 1,2,3,4-tetrahydro-, ethyl ester
Formula: C13H15NO2
CAS: 67461-29-4
Molecular weight: 217
m/z	intensity
50	120
51	260
52	60
55	49
56	59
57	61
61	148
62	90
63	220
64	70
65	89
69	120
70	69
73	59
74	60
75	89
76	68
77	149
78	69
87	49
88	59
89	248
90	187
91	99
101	59
102	99
103	49
115	221
116	269
117	999
118	120
144	60
145	60
189	40
217	289
218	50
