Mass Spectrum: Carbamic acid, N-(4-carboxy-4-methoxybutyl)-, benzyl ester
Formula: C14H19NO5
CAS: 67466-61-9
Molecular weight: 281
m/z	intensity
41	70
42	21
43	49
44	14
45	41
46	2
47	1
49	9
50	7
51	32
52	9
53	15
54	3
55	35
56	29
57	12
58	25
59	7
60	1
61	11
62	4
63	20
64	6
65	123
66	6
67	1
68	59
69	13
70	71
71	23
72	7
73	8
74	5
75	2
76	2
77	38
78	11
79	64
80	6
81	2
82	3
83	1
84	9
85	46
86	10
87	2
88	0
89	39
90	22
91	999
92	77
93	2
96	20
97	5
98	4
99	34
100	26
101	5
102	2
103	1
104	8
105	7
106	2
107	68
108	418
109	31
110	2
112	0
114	62
115	4
116	1
117	1
118	2
119	2
120	8
121	1
126	0
128	37
129	4
130	2
131	10
132	11
143	1
146	70
147	9
148	2
160	9
161	0
174	8
181	0
190	5
236	2
237	4
281	2
282	0
