Mass Spectrum: 1,4-Methanonaphthalene, 1,2,3,4-tetrahydro-2-isothiocyanato-, (1.alpha.,2.alpha.,4.alpha.)-
Formula: C12H11NS
CAS: 67461-32-9
Molecular weight: 201
m/z	intensity
39	160
50	70
51	100
63	160
65	80
77	70
89	110
91	70
102	70
115	920
116	999
142	100
201	890
