Mass Spectrum: Azacyclotridecan-2-one, 1-[3-[[3-[(3-aminopropyl)amino]propyl]amino]propyl]-
Formula: C21H44N4O
CAS: 67473-75-0
Molecular weight: 368
m/z	intensity
70	900
84	999
98	520
112	360
127	250
141	170
154	140
158	220
168	150
182	150
198	450
210	350
224	350
238	900
255	300
267	650
281	240
294	50
311	20
324	40
368	70
369	20
