Mass Spectrum: 4-Methyl-2,6,7-trioxa-1-phosphabicyclo[2.2.2]octane 1-selenide
Formula: C5H9O3PSe
CAS: 67471-54-9
Molecular weight: 228
m/z	intensity
27	130
28	50
29	380
39	210
41	310
43	170
44	120
47	150
53	90
54	50
55	999
56	90
57	170
67	120
71	50
83	70
85	140
117	60
118	60
147	80
224	160
225	130
226	330
228	970
229	30
230	150
