Mass Spectrum: 3.beta.-Acetoxy-5-pregnen-7,20-dione
Formula: C23H32O4
CAS: 6748-09-0
Molecular weight: 372
m/z	intensity
41	116
43	999
45	62
46	9
47	1
49	6
51	11
53	53
55	141
57	23
58	4
60	12
61	4
63	2
65	24
67	90
69	50
71	46
73	7
75	0
77	65
79	120
81	120
83	18
84	23
85	22
86	1
87	2
89	4
91	124
93	82
95	62
97	20
98	2
99	6
100	0
101	1
103	10
105	71
107	94
108	30
109	30
110	8
111	5
112	0
113	3
115	21
117	31
119	45
121	45
122	12
123	17
124	5
125	7
127	5
128	12
129	14
131	28
133	39
134	100
135	49
136	14
137	7
138	2
139	2
141	11
143	22
145	35
147	33
149	31
150	2
151	9
152	4
153	4
154	1
155	8
157	26
159	63
161	134
162	18
163	7
165	5
166	2
167	4
168	0
169	7
171	14
173	33
174	53
175	22
176	7
177	6
178	1
179	5
181	5
183	7
185	17
187	55
188	9
189	6
190	3
191	2
192	1
193	2
194	0
195	6
197	9
199	17
201	10
202	2
203	3
205	7
206	1
207	1
209	8
211	8
213	14
214	5
215	14
216	3
217	3
219	1
221	3
223	5
224	1
225	6
227	100
228	17
229	15
230	3
231	2
232	0
233	1
234	0
235	1
237	3
239	6
241	13
242	13
243	5
244	0
245	2
246	2
247	1
248	1
249	1
250	1
251	8
253	7
254	5
255	8
256	1
257	5
259	3
261	2
265	2
266	0
267	4
268	1
269	41
270	14
271	4
272	1
273	0
274	2
275	1
276	0
277	1
279	8
280	1
281	1
282	0
283	2
284	5
285	5
286	1
287	1
288	0
293	0
294	4
295	3
297	22
298	4
299	2
300	7
301	2
302	2
303	0
304	0
310	2
312	263
313	64
314	13
315	2
316	1
317	0
326	1
327	1
328	3
329	2
330	6
331	1
342	2
344	2
345	0
346	1
348	0
360	0
369	0
370	0
372	1
373	0
