Mass Spectrum: 4-Hexenoic acid, 3-hydroxy-2-methyl-, methyl ester, (R*,R*)-
Formula: C8H14O3
CAS: 67498-09-3
Molecular weight: 158
m/z	intensity
26	15
27	113
28	52
29	102
30	7
31	44
33	9
37	8
38	10
39	129
40	19
41	203
42	44
43	200
44	26
45	27
49	2
50	7
51	19
52	8
53	109
54	15
55	113
56	241
57	396
58	24
59	90
60	12
61	14
62	2
63	4
64	2
65	11
66	7
67	38
68	10
69	153
70	131
71	698
72	41
73	9
74	3
75	2
77	14
78	4
79	31
80	10
81	71
82	27
83	40
84	10
85	81
86	6
87	96
88	999
89	52
90	5
91	3
93	3
94	2
95	3
96	5
97	13
98	27
99	11
100	2
101	13
102	3
105	2
107	2
108	3
109	21
110	3
111	24
112	4
113	8
114	3
115	6
116	2
117	22
118	1
125	36
126	69
127	76
128	8
129	4
130	3
139	3
140	20
141	9
142	3
143	34
144	3
145	2
157	6
158	55
159	5
160	1
