Mass Spectrum: Silane, dichloromethyl(3,3,3-trifluoropropyl)-
Formula: C4H7Cl2F3Si
CAS: 675-62-7
Molecular weight: 210
m/z	intensity
15	37
26	42
27	167
29	21
31	49
33	112
35	7
36	1
37	10
38	26
39	472
40	10
41	27
42	45
43	61
44	8
45	26
46	11
47	138
48	13
49	37
50	18
51	223
52	7
53	39
54	5
55	7
56	7
57	30
58	22
59	370
60	12
63	561
64	64
65	211
66	20
67	14
69	368
70	1
71	1
72	1
75	116
76	17
96	20
98	97
99	36
100	61
101	26
102	13
103	7
107	1
113	999
114	61
115	674
116	35
117	250
118	4
119	96
120	1
121	16
123	4
126	10
128	5
130	2
131	7
139	2
155	18
157	4
175	5
177	1
195	51
197	33
198	2
199	4
