Mass Spectrum: 3-Cyclopropenoic acid,1-butyl, methyl ester
Formula: C9H14O2
CAS: 67500-40-7
Molecular weight: 154
m/z	intensity
33	5
37	34
39	999
40	149
41	682
42	57
43	248
45	57
46	5
47	1
50	170
51	328
52	236
53	683
54	81
55	396
56	21
57	35
59	250
60	6
61	9
62	24
63	55
65	260
66	178
67	284
68	109
69	75
70	5
71	23
72	6
73	5
74	13
75	6
77	141
79	361
80	68
81	238
82	104
83	174
84	35
85	15
87	10
88	1
89	1
91	48
93	108
94	91
95	767
96	55
97	180
98	33
99	6
100	9
103	2
105	2
107	22
108	2
109	9
111	823
112	90
113	15
114	1
121	17
122	17
123	12
124	4
125	33
126	11
127	1
139	21
140	1
153	5
154	6
155	1
