Mass Spectrum: Urs-20(30)-ene-3,16-diol, (3.beta.,16.beta.,18.alpha.,19.alpha.)-
Formula: C30H50O2
CAS: 6750-30-7
Molecular weight: 442
m/z	intensity
108	999
135	340
189	320
190	140
191	140
203	150
207	450
215	40
219	40
220	80
229	40
231	40
234	40
297	30
315	50
360	90
381	30
409	40
424	150
442	120
