Mass Spectrum: 1,3,5-Tris(dimethylamino)-1,3,5-hexahydrotriazine-2,4,6-trione
Formula: C9H18N6O3
CAS: 67500-31-6
Molecular weight: 258
m/z	intensity
40	163
41	317
42	233
43	830
44	386
45	122
58	467
59	327
85	299
86	999
129	403
130	342
171	125
215	208
216	675
258	141
