Mass Spectrum: 4-Methylthiane, S,S-dioxide
Formula: C6H12O2S
CAS: 67512-92-9
Molecular weight: 148
m/z	intensity
53	60
54	30
55	999
56	780
57	40
67	80
68	90
69	380
70	20
81	50
82	110
83	260
84	50
148	320
149	24
150	15
151	1
