Mass Spectrum: Acetic acid, 7-acetoxy-6-methoxy-2-phenylhexahydropyrano[3,2-d][1,3]dioxin-8-yl ester
Formula: C18H22O8
CAS: 6752-75-6
Molecular weight: 366
m/z	intensity
26	2
27	21
28	2
29	40
30	2
31	15
33	13
35	5
36	1
37	3
38	2
39	24
40	5
41	39
42	27
43	999
44	36
45	69
46	2
47	10
48	2
49	5
50	10
51	41
52	13
53	16
54	13
55	42
56	10
57	32
58	8
59	24
60	17
61	37
62	4
63	8
64	5
65	8
66	3
67	5
68	22
69	90
70	46
71	42
72	5
73	31
74	97
75	14
76	10
77	148
78	57
79	87
80	12
81	70
82	34
83	51
84	22
85	72
86	26
87	105
88	9
89	23
90	28
91	190
92	32
93	5
94	3
95	7
96	11
97	69
98	52
99	63
100	10
101	13
102	46
103	103
104	15
105	433
106	87
107	171
108	18
109	32
110	9
111	18
112	25
113	21
114	11
115	533
116	73
117	23
118	14
119	20
120	14
121	26
122	5
123	9
124	7
125	9
126	9
127	30
128	44
129	56
130	8
131	11
132	7
133	16
134	6
135	3
136	4
137	3
138	3
139	18
140	18
141	74
142	21
143	13
144	52
145	72
146	10
147	8
148	4
149	283
150	36
151	5
152	7
153	3
154	2
155	5
156	4
157	257
158	55
159	16
160	25
161	11
162	81
163	13
164	2
165	4
166	4
167	3
168	5
169	29
170	26
171	1
173	21
175	19
183	13
186	31
187	78
188	12
189	5
200	14
201	2
202	24
203	16
204	14
205	1
215	43
217	382
218	37
228	29
229	36
243	17
246	70
247	23
260	3
263	8
264	3
275	25
306	42
307	0
335	4
365	55
366	128
367	29
