Mass Spectrum: Cyclopropanecarboxylic acid, 3-ethenyl-2,2-dimethyl-, cis-
Formula: C8H12O2
CAS: 67528-58-9
Molecular weight: 140
m/z	intensity
27	180
28	86
29	115
30	3
31	19
32	3
36	0
37	1
38	7
39	250
40	42
41	366
42	43
43	157
44	55
45	23
46	2
47	3
48	1
49	0
50	8
51	47
52	37
53	247
54	66
55	329
56	26
57	26
58	4
59	114
60	4
61	0
62	1
63	7
64	3
65	55
66	27
67	436
68	52
69	54
70	27
71	24
72	3
73	6
74	1
76	1
77	163
78	29
79	330
80	72
81	193
82	74
83	41
84	24
85	10
86	2
87	1
88	2
89	2
90	1
91	56
92	9
93	94
94	56
95	999
96	114
97	168
98	20
99	17
100	3
101	1
102	0
103	0
104	0
105	5
106	2
107	34
108	9
109	4
110	2
111	37
112	14
113	4
114	1
115	0
117	0
118	1
119	4
120	4
121	9
122	31
123	12
124	2
125	148
126	14
127	1
128	0
129	0
133	1
134	0
135	1
136	1
137	1
138	1
139	13
140	188
141	20
142	1
