Mass Spectrum: 1H-2-Benzopyran-1-one, 3,4-dihydro-8-methoxy-3,7-dimethyl-, (R)-
Formula: C12H14O3
CAS: 67549-57-9
Molecular weight: 206
m/z	intensity
104	999
132	470
145	910
160	900
162	420
163	190
173	380
177	110
188	120
191	140
206	510
