Mass Spectrum: 3-(4'-Hydroxyphenoxy)-N-methylmorphinan
Formula: C23H27NO2
CAS: 67562-61-2
Molecular weight: 349
m/z	intensity
39	123
41	147
42	310
44	135
58	100
59	999
65	108
73	90
81	123
82	117
94	100
109	209
115	171
128	199
131	93
141	217
143	108
150	797
151	112
152	120
153	89
154	151
155	140
165	109
167	118
174	102
181	145
182	97
183	110
207	94
239	99
249	130
252	196
281	217
290	185
292	270
348	468
349	949
350	246
