Mass Spectrum: Propanedioic acid, (bromomethyl)methyl-, bis(1,1-dimethylethyl) ester
Formula: C13H23BrO4
CAS: 67587-04-6
Molecular weight: 322
m/z	intensity
41	999
44	360
55	150
56	420
57	240
69	120
86	170
124	10
127	10
142	10
143	10
221	10
223	10
322	10
324	10
