Mass Spectrum: Cyclohexanecarboxylic acid, 4-propyl-, 4-methoxyphenyl ester
Formula: C17H24O3
CAS: 67589-38-2
Molecular weight: 276
m/z	intensity
27	31
28	10
29	35
39	32
41	125
42	10
43	26
52	11
53	27
55	111
57	34
65	15
67	42
69	174
70	10
77	13
79	17
81	55
83	100
95	27
109	103
124	999
125	132
126	11
276	19
277	4
