Mass Spectrum: N-tert-butyl-.alpha.-(aminomethylene)glutaconic anhydride
Formula: C10H13NO3
CAS: 67598-10-1
Molecular weight: 195
m/z	intensity
57	999
67	290
79	80
94	80
95	110
111	120
122	50
139	630
140	230
180	50
195	300
