Mass Spectrum: N,N-Tetramethylene-.alpha.-(aminomethylene)glutaconic anhydride
Formula: C10H11NO3
CAS: 67598-12-3
Molecular weight: 193
m/z	intensity
51	550
79	450
80	170
93	999
94	240
108	170
109	50
110	100
120	760
121	210
137	620
164	690
165	590
193	930
