Mass Spectrum: Trimethylphosphine oxide
Formula: C3H9OP
CAS: 676-96-0
Molecular weight: 92
m/z	intensity
25	1
26	10
27	38
29	11
30	0
31	17
33	12
34	1
35	0
37	0
38	1
39	1
41	1
42	0
43	0
44	16
45	69
46	35
47	170
48	19
49	247
50	0
51	0
55	1
56	6
57	31
58	7
59	31
60	2
61	18
62	19
63	12
64	1
68	0
69	0
71	0
73	0
74	0
75	6
76	7
77	999
78	31
79	3
91	0
92	614
93	32
94	2
