Mass Spectrum: Methanesulfinyl chloride
Formula: CH3ClOS
CAS: 676-85-7
Molecular weight: 98
m/z	intensity
36	155
38	56
45	279
48	351
61	155
63	999
83	196
85	72
98	345
100	121
