Mass Spectrum: 3-Pyridin-2-yl-4-methyl-1,2,5-oxadiazole
Formula: C8H7N3O
CAS: 67615-76-3
Molecular weight: 161
m/z	intensity
41	151
50	90
51	168
52	111
53	29
57	30
62	30
63	89
64	60
65	39
75	19
76	50
77	151
78	440
79	130
90	109
103	20
104	238
105	999
120	40
121	20
131	60
144	470
161	498
162	50
