Mass Spectrum: Spiro[cyclohexanol-5,6'-piperidin-2'-one], 6-butyl, formate(ester)
Formula: C15H25NO3
CAS: 67613-85-8
Molecular weight: 267
m/z	intensity
41	874
42	3
43	265
44	136
45	19
46	7
47	12
49	2
50	3
51	17
52	19
53	122
54	153
55	999
56	117
57	161
58	22
59	56
60	8
61	4
63	5
64	2
65	57
66	30
67	317
68	79
69	160
70	81
71	34
72	35
73	6
74	1
75	2
77	88
78	0
79	196
80	64
81	140
82	329
83	177
84	42
85	12
86	40
87	20
88	1
89	2
91	85
92	15
93	86
94	96
95	85
96	446
97	62
98	125
99	14
100	5
101	1
102	1
103	5
104	5
105	32
106	26
107	53
108	69
109	89
110	86
111	865
112	600
113	44
114	7
115	4
116	1
117	8
118	4
119	25
120	16
121	34
122	129
123	69
124	950
125	212
126	32
127	8
128	2
129	3
130	3
131	13
132	4
133	14
134	13
135	32
136	85
137	121
138	129
139	34
140	17
141	4
142	4
143	3
145	7
146	2
147	12
148	11
149	15
150	548
151	214
152	74
153	21
154	11
155	2
156	0
157	0
158	0
159	2
160	2
161	9
162	13
163	39
164	113
165	63
166	96
167	17
168	71
169	8
170	1
171	0
173	0
174	0
175	2
176	3
177	6
178	169
179	30
180	45
181	7
182	3
183	7
184	1
185	1
186	0
187	6
189	1
190	0
191	0
192	52
193	43
194	26
195	3
196	25
197	4
198	0
202	0
203	1
204	4
205	18
206	12
207	1
208	0
210	1
211	3
212	0
219	3
220	18
221	30
222	487
223	74
224	34
225	4
226	0
238	4
239	5
240	1
264	0
266	2
267	70
268	14
269	1
