Mass Spectrum: N-Ethyl-hexahydro-1H-azepine
Formula: C8H17N
CAS: 6763-91-3
Molecular weight: 127
m/z	intensity
41	856
42	999
43	906
44	546
45	71
46	38
50	16
51	56
52	18
53	113
54	117
55	335
56	606
57	423
58	257
59	100
60	62
65	32
67	158
68	148
69	180
70	581
71	412
72	226
73	192
77	54
79	60
80	14
81	77
82	114
83	142
84	451
85	158
86	53
95	15
96	62
97	61
98	516
99	279
100	33
107	17
109	53
110	96
111	47
112	815
113	62
126	156
127	891
128	88
