Mass Spectrum: Carbonic acid, 3-hexenyl methyl ester, (Z)-
Formula: C8H14O3
CAS: 67633-96-9
Molecular weight: 158
m/z	intensity
27	7
29	79
31	7
36	7
39	28
40	7
41	321
42	39
43	28
45	208
53	39
54	149
55	392
56	19
57	7
59	131
65	19
66	19
67	999
68	91
69	48
71	7
77	28
79	7
81	109
82	652
83	119
