Mass Spectrum: Alpha-d-xylopyranose
Formula: C5H10O5
CAS: 6763-34-4
Molecular weight: 150
m/z	intensity
13	5
14	35
15	99
16	4
17	47
18	260
19	29
24	2
25	7
26	35
27	62
28	142
29	309
30	112
31	430
32	162
33	12
34	1
36	1
37	4
38	7
39	32
40	21
41	43
42	223
43	414
44	157
45	87
46	4
47	32
49	3
50	3
51	3
52	4
53	9
54	23
55	75
56	51
57	133
58	45
59	12
60	657
61	342
62	14
63	2
65	1
66	2
67	3
68	26
69	28
70	6
71	143
72	142
73	999
74	69
75	9
76	1
77	4
78	1
79	2
80	4
81	1
82	2
83	8
84	15
85	29
86	59
87	7
88	3
89	15
90	19
91	44
92	2
93	1
94	2
95	16
96	24
97	4
98	3
101	31
102	13
103	38
104	4
105	1
106	1
107	1
109	1
110	1
114	9
115	3
119	26
120	2
121	2
124	4
132	1
133	4
149	1
