Mass Spectrum: Acetic acid, (3-methylbutoxy)-, 2-propenyl ester
Formula: C10H18O3
CAS: 67634-00-8
Molecular weight: 186
m/z	intensity
15	4
26	9
27	86
28	30
29	106
30	11
31	42
37	3
38	12
39	212
40	33
41	695
42	113
43	999
44	67
45	99
46	2
49	1
50	2
51	4
52	2
53	30
54	129
55	345
56	151
57	98
58	138
59	32
60	9
61	23
63	1
65	1
66	1
67	21
68	6
69	470
70	92
71	627
72	45
73	9
74	1
75	11
76	1
77	1
82	82
83	7
84	2
85	64
86	7
87	12
88	1
89	16
90	1
93	2
95	16
96	1
97	1
98	2
99	63
100	384
101	174
102	12
103	4
113	2
114	2
115	1
116	1
117	18
118	1
127	1
129	22
130	1
141	1
187	1
