Mass Spectrum: 1-(S-Triazin-3-yl)-hexane
Formula: C8H15N3
CAS: 67646-18-8
Molecular weight: 153
m/z	intensity
27	233
29	216
39	195
40	42
41	299
42	168
43	201
52	38
53	76
54	105
55	185
56	64
57	23
67	34
68	40
69	37
70	23
82	141
83	999
84	124
95	20
96	899
97	362
98	23
108	22
109	23
110	498
111	65
122	33
123	16
124	303
125	42
138	166
152	57
153	237
154	27
