Mass Spectrum: Benzene, (1-propenylsulfinyl)-, (E)-
Formula: C9H10OS
CAS: 67652-99-7
Molecular weight: 166
m/z	intensity
26	28
27	127
29	19
35	8
37	37
38	75
39	618
40	19
41	360
42	14
43	36
44	12
45	384
46	13
47	35
48	8
49	18
50	209
51	582
52	65
53	42
55	8
56	6
57	24
58	44
59	98
60	8
61	25
62	28
63	61
64	12
65	250
66	153
67	9
68	4
69	121
70	17
71	107
72	132
73	143
74	105
75	64
76	37
77	504
78	665
79	75
80	4
81	23
82	28
83	13
84	49
85	8
86	5
87	4
89	27
90	17
91	210
92	22
93	13
94	81
95	12
97	99
98	8
99	5
102	11
103	66
104	33
105	191
106	18
108	40
109	530
110	279
111	43
112	12
114	6
115	153
116	107
117	644
118	999
119	98
120	5
121	75
122	14
123	28
125	71
126	67
127	7
128	5
133	11
134	103
135	370
136	39
137	256
138	29
139	13
141	17
142	6
143	5
147	37
148	18
149	235
150	629
151	86
152	30
153	4
166	151
167	20
168	8
