Mass Spectrum: 3,5-Octadiene, 4,5-diethyl-
Formula: C12H22
CAS: 67652-84-0
Molecular weight: 166
m/z	intensity
25	3
26	21
27	234
28	33
29	298
30	9
31	3
38	7
39	238
40	37
41	589
42	53
43	213
44	6
48	4
50	15
51	60
52	32
53	169
54	32
55	506
56	38
57	161
58	8
59	4
62	5
63	24
64	6
65	89
66	32
67	367
68	35
69	212
70	15
71	36
74	2
75	5
76	3
77	158
78	32
79	170
80	30
81	692
82	69
83	50
84	11
89	4
91	136
92	22
93	133
94	20
95	999
96	102
97	11
103	8
104	4
105	34
106	8
107	62
108	21
109	193
110	34
111	20
113	4
115	3
117	4
119	6
121	24
122	11
123	161
124	27
125	3
135	12
136	9
137	596
138	71
139	6
140	2
149	2
151	35
152	5
153	9
165	15
166	367
167	53
168	4
