Mass Spectrum: 2H-Pyran-2-methanol, 3,4-dihydro-, methanesulfonate, (S)-
Formula: C7H12O4S
CAS: 67666-31-3
Molecular weight: 192
m/z	intensity
26	31
27	288
28	119
29	397
30	17
31	71
38	14
39	246
40	66
41	408
42	52
43	120
44	21
45	20
48	13
50	13
51	23
52	13
53	132
54	118
55	498
56	36
57	367
58	71
63	20
65	81
66	153
67	509
68	337
69	69
70	72
71	25
77	13
78	39
79	349
80	79
81	635
82	56
83	999
84	56
94	21
95	733
96	678
97	80
109	9
113	4
121	4
122	4
135	10
136	21
148	13
192	371
193	36
194	23
