Mass Spectrum: 2,4,4,5,5-Pentamethyl-2-phenyl-1,3-dioxasilolane
Formula: C13H20O2Si
CAS: 6766-41-2
Molecular weight: 236
m/z	intensity
41	199
43	131
44	29
45	50
54	121
56	500
57	199
58	999
59	60
69	60
76	100
77	59
78	120
80	60
81	80
82	241
83	198
84	700
85	199
86	101
91	200
92	100
93	109
99	200
101	120
103	160
118	159
119	120
120	99
121	100
123	40
132	100
134	30
137	40
148	59
150	39
163	50
177	20
178	30
179	20
236	79
237	30
