Mass Spectrum: Heptanal, dimethylhydrazone
Formula: C9H20N2
CAS: 67660-53-1
Molecular weight: 156
m/z	intensity
29	128
30	56
39	72
40	22
41	183
42	350
43	445
44	890
45	350
46	42
53	16
54	21
55	106
56	89
57	30
58	89
59	411
60	333
61	12
67	13
68	21
69	28
70	39
71	150
72	39
73	72
82	27
83	44
84	27
85	721
86	999
87	67
95	14
96	11
97	24
98	10
99	205
100	33
112	67
113	122
114	31
127	119
128	23
141	50
155	19
156	556
157	75
