Mass Spectrum: 2-Hexene, 6,6-dimethoxy-2,5,5-trimethyl-
Formula: C11H22O2
CAS: 67674-46-8
Molecular weight: 186
m/z	intensity
27	14
29	20
30	1
31	19
33	2
38	1
39	35
40	6
41	128
42	10
43	49
44	2
45	11
47	64
48	1
50	2
51	6
52	3
53	52
54	6
55	56
56	7
57	10
58	3
59	69
60	2
62	1
63	2
65	6
66	2
67	24
68	7
69	193
70	14
71	59
72	4
73	8
74	2
75	999
76	33
77	14
78	2
79	15
80	3
81	16
82	3
83	7
84	1
85	39
86	39
87	13
88	3
91	10
92	2
93	8
95	9
96	3
97	3
98	1
99	8
100	1
101	4
102	1
103	2
105	4
106	1
107	42
108	11
109	14
110	4
111	7
112	1
113	1
115	22
116	4
117	7
118	1
121	6
122	15
123	21
124	4
125	1
128	1
129	2
130	1
136	5
137	1
139	138
140	14
141	1
153	1
154	116
155	34
156	4
185	1
186	1
