Mass Spectrum: 4,6-Decadienal, 8-ethyl-10-[4-hydroxy-8-(2-hydroxypropyl)-3,9-dimethyl-1,7-dioxaspiro[5.5]undec-2-yl]-2-methyl-
Formula: C27H46O5
CAS: 67685-13-6
Molecular weight: 450
m/z	intensity
27	162
28	50
29	340
31	50
39	162
40	48
41	751
42	114
43	999
44	71
45	339
53	160
54	66
55	934
56	159
57	345
58	160
59	106
60	37
65	84
66	42
67	589
68	193
69	529
70	98
71	279
72	45
73	59
77	186
78	55
79	489
80	133
81	561
82	155
83	297
84	78
85	199
86	58
87	155
91	294
92	64
93	411
94	170
95	897
96	174
97	275
98	174
99	292
100	37
101	26
105	210
106	73
107	408
108	249
109	532
110	178
111	269
112	129
113	277
114	88
115	39
117	61
119	158
120	241
121	269
122	136
123	192
124	55
125	102
126	62
127	117
128	152
129	108
131	88
132	32
133	105
134	70
135	266
136	114
137	281
138	74
139	94
140	38
141	59
143	28
145	80
146	33
147	180
148	79
149	216
150	71
151	92
152	132
153	361
154	42
155	223
156	28
157	53
159	42
160	37
161	83
162	39
163	118
164	69
165	195
166	26
167	54
170	338
171	502
172	59
173	62
174	39
175	98
176	135
177	124
178	141
179	55
180	34
181	114
183	115
187	84
189	36
191	48
192	82
193	228
194	49
195	36
197	34
198	63
199	275
200	33
201	87
203	30
204	47
205	97
206	66
207	31
209	30
210	164
211	101
215	34
216	46
217	35
218	20
219	39
220	21
221	46
222	59
223	71
226	28
227	35
231	35
232	31
233	32
234	64
235	45
236	31
237	52
239	50
240	38
241	37
244	67
245	55
247	31
250	26
252	56
253	26
255	22
257	28
259	22
262	32
263	56
264	30
265	35
274	19
279	18
287	25
289	23
292	54
293	16
305	68
306	20
320	15
321	18
331	13
334	19
356	17
357	57
358	18
362	22
374	34
375	200
376	57
392	13
393	35
404	27
414	25
415	11
432	173
433	64
434	13
450	21
451	6
