Mass Spectrum: 1,3,2-Dioxaphospholane, 4,5-dimethyl-2-phenyl-
Formula: C10H13O2P
CAS: 67695-17-4
Molecular weight: 196
m/z	intensity
27	165
28	108
29	163
30	5
31	4
32	2
37	5
38	14
39	140
40	28
41	374
42	20
43	185
44	17
45	17
47	167
48	6
49	4
50	77
51	208
52	22
53	35
54	33
55	431
56	999
57	60
58	2
62	5
63	20
64	8
65	35
66	2
68	6
69	15
71	8
72	16
73	4
74	17
75	13
76	16
77	317
78	113
79	21
80	18
81	28
82	19
83	8
84	3
91	11
92	2
93	4
94	3
95	4
96	14
103	7
104	8
105	125
106	15
107	198
108	312
109	40
110	7
112	2
113	7
117	10
119	30
120	3
121	8
123	4
124	80
125	28
126	8
130	6
131	16
132	8
133	2
137	2
138	1
139	4
140	5
141	338
142	221
143	22
144	2
151	5
152	22
153	3
156	4
159	16
167	5
168	4
181	6
187	3
195	9
196	327
197	36
