Mass Spectrum: Phosphinic chloride, bis(1,1-dimethylethyl)-
Formula: C8H18ClOP
CAS: 677-74-7
Molecular weight: 196
m/z	intensity
33	0
37	1
39	52
41	127
42	5
43	1
45	1
47	13
49	1
50	3
51	2
53	9
57	999
59	2
60	0
62	2
63	10
65	0
67	0
69	0
71	0
72	0
75	0
76	0
77	1
79	0
80	0
81	4
82	1
83	4
85	2
87	4
88	0
89	0
90	0
97	0
102	0
103	6
104	11
105	12
106	0
118	0
122	1
123	15
125	6
126	0
138	1
140	121
142	48
143	2
144	0
145	0
160	2
161	14
162	1
179	3
180	0
181	4
183	0
185	0
193	0
196	74
198	30
200	0
