Mass Spectrum: 3-(Benzoylthio)-2-methylpropanoic acid
Formula: C11H12O3S
CAS: 67714-34-5
Molecular weight: 224
m/z	intensity
26	2
27	19
28	1
29	4
31	2
38	3
39	24
40	2
41	27
42	19
43	4
44	2
45	23
46	6
47	4
50	25
51	109
52	6
55	3
57	3
58	2
59	2
63	2
65	4
69	4
73	6
74	10
75	6
76	12
77	370
78	24
86	0
91	1
102	2
104	2
105	999
106	71
107	4
109	2
119	1
121	1
122	7
123	4
138	1
141	0
149	2
150	2
196	1
224	7
225	1
