Mass Spectrum: 2H-Pyran, 2-[(4-chloro-2-butynyl)oxy]tetrahydro-
Formula: C9H13ClO2
CAS: 67727-01-9
Molecular weight: 188
m/z	intensity
26	29
27	118
28	85
29	179
30	7
31	60
36	6
37	17
38	25
39	160
40	44
41	505
42	48
43	138
44	30
45	12
47	13
49	17
50	64
51	334
52	177
53	85
54	30
55	352
56	484
57	172
58	7
59	9
61	16
63	7
65	14
66	22
67	150
68	35
69	127
70	14
71	12
73	11
75	13
76	4
77	24
78	6
79	33
81	21
82	59
83	52
85	999
86	66
87	315
88	154
89	92
90	41
91	14
93	9
95	49
96	6
97	88
98	5
100	6
101	352
102	19
103	28
104	8
106	35
107	14
109	6
111	8
117	8
119	3
122	7
124	4
130	33
131	4
132	11
133	30
135	9
153	17
187	21
188	3
189	8
