Mass Spectrum: Boronic acid, ethyl-, diphenyl ester
Formula: C14H15BO2
CAS: 67753-50-8
Molecular weight: 226
m/z	intensity
26	13
27	35
28	26
29	10
30	0
31	4
33	0
36	1
37	12
38	26
39	105
40	42
41	4
42	3
43	2
44	4
45	1
46	1
47	11
48	0
49	4
50	53
51	257
52	18
53	13
54	5
55	35
56	2
57	3
58	0
59	0
60	1
61	6
62	10
63	24
64	10
65	90
66	98
67	7
68	4
69	1
70	0
71	1
72	0
73	2
74	13
75	11
76	30
77	999
78	77
79	7
80	1
81	1
82	2
83	4
84	1
85	1
86	0
87	0
88	0
89	4
90	3
91	42
92	11
93	7
94	286
95	19
96	1
97	0
98	1
99	10
100	0
101	0
102	1
103	3
104	16
105	40
106	18
107	1
108	0
109	1
110	4
111	8
112	10
113	4
114	0
115	5
116	1
117	1
118	0
119	1
120	6
121	5
122	0
123	0
126	0
127	1
128	1
129	1
130	1
131	4
132	38
133	129
134	11
135	1
136	0
137	5
138	13
139	17
140	1
141	4
142	1
143	0
145	0
146	0
147	1
148	0
149	0
150	1
151	7
152	28
153	52
154	7
155	0
161	0
165	1
166	1
167	5
168	7
169	6
170	2
171	0
175	0
176	0
177	0
178	9
179	43
180	5
181	0
188	0
189	0
195	1
196	120
197	493
198	64
199	5
200	0
207	0
208	0
209	0
210	0
211	3
212	0
223	0
224	0
225	69
226	289
227	43
228	3
229	0
