Mass Spectrum: Benzeneethanol, .alpha.,.alpha.-dimethyl-, propanoate
Formula: C13H18O2
CAS: 67785-77-7
Molecular weight: 206
m/z	intensity
29	229
55	28
56	7
57	999
58	122
59	79
63	7
91	229
92	59
104	19
105	7
115	211
116	19
117	187
118	19
131	19
132	412
133	209
134	19
135	39
148	139
149	7
191	7
