Mass Spectrum: Ethylphosphonic acid
Formula: C2H7O3P
CAS: 6779-09-5
Molecular weight: 110
m/z	intensity
41	5
42	6
43	11
44	16
45	11
47	52
48	8
49	3
50	1
51	1
54	3
55	5
56	3
57	6
58	1
60	1
61	1
63	26
64	18
65	146
66	4
67	2
68	2
69	4
70	3
71	3
72	7
73	1
75	1
76	1
77	3
78	10
79	5
80	2
81	167
82	999
83	25
84	9
85	2
86	1
89	1
93	49
94	4
95	3
108	1
109	61
110	438
111	12
112	4
113	0
