Mass Spectrum: 3-Methyl-5-hydrazinopyrazine
Formula: C4H8N4
CAS: 67790-09-4
Molecular weight: 112
m/z	intensity
28	202
35	250
37	98
39	169
40	80
41	297
42	273
51	17
52	57
53	15
54	27
55	15
56	26
65	14
66	91
67	239
68	25
69	5
75	9
81	31
82	55
83	18
88	8
95	11
96	62
97	40
110	7
111	20
112	999
113	66
