Mass Spectrum: Pentane, dodecafluoro-
Formula: C5F12
CAS: 678-26-2
Molecular weight: 288
m/z	intensity
19	1
31	61
50	23
55	1
62	3
69	999
74	2
81	5
93	16
100	65
112	3
119	299
124	1
125	1
131	66
143	1
150	12
162	1
169	105
181	33
200	3
219	3
269	8
288	1
