Mass Spectrum: 2-Nonanone, 3-(hydroxymethyl)-
Formula: C10H20O2
CAS: 67801-33-6
Molecular weight: 172
m/z	intensity
29	46
42	50
43	774
44	23
56	26
57	212
58	999
59	201
69	20
71	236
82	43
84	35
85	40
99	22
113	19
127	32
142	68
143	7
