Mass Spectrum: 1,3,4,6-Tetra-O-acetyl-2-azido-2-deoxy-.alpha.-D-galactopyranose
Formula: C14H19N3O9
CAS: 67817-30-5
Molecular weight: 373
m/z	intensity
40	39
41	99
42	259
43	999
44	469
45	289
57	109
59	79
60	259
61	159
68	599
69	689
70	209
71	159
72	79
73	289
80	20
81	39
82	39
83	99
84	279
85	899
86	79
87	169
95	69
96	289
97	39
98	39
99	89
100	179
101	889
102	109
103	789
104	49
109	49
110	39
111	39
112	339
113	159
114	999
115	419
116	79
123	69
124	219
125	69
126	49
127	99
128	339
129	49
130	109
131	29
132	9
136	12
138	159
139	44
140	25
141	55
142	88
144	64
145	279
146	20
152	37
153	32
154	77
155	99
156	59
157	89
158	20
166	77
167	25
168	11
169	14
170	22
171	43
172	109
173	64
174	25
182	4
183	319
184	70
185	12
186	6
187	29
194	12
196	6
197	26
198	72
199	9
200	17
201	9
202	30
203	6
210	1
211	6
212	5
213	0
214	21
216	10
225	5
226	4
227	2
228	2
229	4
242	25
243	20
244	22
256	149
257	20
258	3
260	3
261	1
269	1
273	8
274	1
284	3
285	10
286	2
314	189
315	26
316	5
330	0
