Mass Spectrum: Ethanone, 2-(2,4-dichlorophenoxy)-1-(1-pyrrolidinyl)-
Formula: C12H13Cl2NO2
CAS: 67836-03-7
Molecular weight: 273
m/z	intensity
33	8
34	8
35	23
36	129
37	95
39	248
40	41
42	733
43	217
44	52
45	10
47	7
48	5
49	14
50	67
51	28
53	51
55	999
56	292
57	21
58	4
59	3
61	31
62	57
63	161
64	20
65	20
67	21
68	59
70	285
72	115
74	75
75	102
76	13
77	22
78	7
79	6
80	8
81	8
82	21
84	684
86	9
87	12
89	6
90	6
91	29
92	9
93	4
94	5
96	29
98	612
99	44
100	11
101	4
102	1
103	2
104	2
105	5
106	3
107	16
109	104
111	191
112	392
113	37
114	7
115	5
117	2
118	2
119	7
120	3
121	3
122	2
123	2
124	4
125	2
126	9
127	10
128	25
130	6
131	6
133	74
135	57
136	6
137	11
139	10
140	4
141	6
142	1
143	4
145	95
147	79
149	25
150	1
151	2
152	1
153	1
155	7
156	1
157	1
158	0
159	2
161	20
162	38
163	13
164	24
165	3
166	4
167	2
168	4
169	1
170	1
171	4
172	0
173	7
175	29
177	18
178	2
179	3
180	1
181	0
182	2
183	1
184	0
185	1
186	0
188	0
189	0
190	0
191	1
192	0
193	1
196	1
197	0
198	3
199	0
201	0
203	8
204	11
205	1
207	0
208	5
209	1
210	3
212	1
218	1
219	0
220	4
222	1
223	0
232	0
234	1
236	19
238	812
239	127
240	255
241	32
242	3
243	0
244	2
245	0
246	2
254	0
268	1
272	1
273	8
275	6
276	0
277	0
