Mass Spectrum: (S)-(+)-Epichlorohydrin
Formula: C3H5ClO
CAS: 67843-74-7
Molecular weight: 92
m/z	intensity
14	6
15	19
25	8
26	63
27	288
28	97
29	270
30	18
31	165
32	2
35	7
36	8
37	20
38	23
39	42
40	5
41	11
42	105
43	40
44	0
47	13
48	19
49	389
50	15
51	113
52	3
53	3
55	8
57	999
58	34
59	4
60	14
61	45
62	148
63	26
64	45
65	5
77	1
