Mass Spectrum: Pyrazine, 2-methyl-6-propoxy-
Formula: C8H12N2O
CAS: 67845-28-7
Molecular weight: 152
m/z	intensity
13	1
14	3
15	28
16	1
25	1
26	26
27	196
28	110
29	11
30	2
31	3
36	1
37	9
38	29
39	182
40	116
41	214
42	126
43	165
44	6
50	1
51	8
52	26
53	17
54	119
55	86
56	10
57	3
58	1
59	1
60	1
61	1
62	1
63	2
64	13
65	14
66	113
67	34
68	32
69	8
70	2
71	1
73	1
77	1
79	1
80	5
81	423
82	804
83	56
84	3
91	1
92	6
93	97
94	98
95	28
96	18
97	3
105	1
107	1
108	3
109	13
110	999
111	81
112	6
121	5
122	26
123	149
124	32
125	3
133	1
135	2
137	12
138	2
149	1
150	1
151	13
152	137
153	15
154	1
