Mass Spectrum: Tricyclo[4.1.0.0(2,4)]heptane, 3,3,7,7-tetramethyl-5-(2-methyl-1-propenyl)-, (1.alpha.,2.beta.,4.beta.,5.alpha.,6.alpha.)-
Formula: C15H24
CAS: 67843-59-8
Molecular weight: 204
m/z	intensity
27	228
29	218
30	5
38	7
39	268
40	36
41	999
42	40
43	420
44	10
50	13
51	76
52	29
53	194
54	19
55	542
56	27
57	53
58	9
63	26
64	14
65	124
66	29
67	161
68	16
69	649
70	38
71	10
72	13
73	16
75	10
76	7
77	233
78	57
79	207
80	33
81	121
82	19
83	138
84	11
87	16
89	14
91	407
92	61
93	185
94	54
95	132
96	18
97	52
102	10
103	45
104	23
105	573
106	72
107	338
108	40
109	56
110	474
111	45
112	5
115	64
116	35
117	73
118	22
119	618
120	97
121	189
122	251
123	44
127	16
128	36
129	43
130	28
131	70
132	21
133	384
134	56
135	146
136	46
141	7
142	6
143	17
144	12
145	62
146	40
147	213
148	56
149	20
159	47
160	22
161	478
162	62
173	11
174	15
175	12
187	5
189	256
190	42
204	129
205	21
