Mass Spectrum: Diethylamine, 2,2'-dimethoxy-N-nitroso-
Formula: C6H14N2O3
CAS: 67856-65-9
Molecular weight: 162
m/z	intensity
28	140
30	410
36	600
42	450
43	620
45	999
57	390
58	410
59	680
60	450
72	500
74	160
75	290
76	80
85	40
86	330
87	80
88	70
100	120
102	160
117	270
132	120
162	100
