Mass Spectrum: Acetamide, 2-amino-N-(1-methylethyl)-
Formula: C5H12N2O
CAS: 67863-05-2
Molecular weight: 116
m/z	intensity
26	4
27	48
28	65
29	19
30	999
31	283
38	3
39	26
40	8
41	77
42	45
43	204
44	170
45	7
46	7
55	2
56	7
57	8
58	40
59	2
70	3
71	5
72	19
73	6
85	2
86	7
99	29
100	2
101	6
116	139
117	11
