Mass Spectrum: 1-Allyl-3-methyl-2,4,5-trioxoimidazolidine
Formula: C7H8N2O3
CAS: 67867-41-8
Molecular weight: 168
m/z	intensity
40	70
41	470
42	50
43	20
44	20
51	20
52	40
53	30
54	270
55	380
56	920
57	140
58	300
59	10
68	10
69	20
70	690
71	20
82	120
83	999
84	70
85	10
99	10
100	10
111	280
112	60
113	30
129	40
140	30
168	750
