Mass Spectrum: 6,7-Dioxabicyclo[3.2.2]non-8-ene
Formula: C7H10O2
CAS: 6786-21-6
Molecular weight: 126
m/z	intensity
26	100
27	460
28	330
29	380
30	10
31	30
32	30
37	20
38	30
39	370
40	70
41	480
42	240
43	130
44	60
50	30
51	40
52	20
53	120
54	110
55	320
56	30
57	50
63	10
65	30
66	170
67	140
68	60
69	90
70	180
71	30
77	110
78	30
79	970
80	90
81	90
82	20
83	90
84	10
91	30
93	70
94	999
95	80
97	40
98	20
126	80
