Mass Spectrum: 1-Methyl-3-iso-propyl-2,4,5-trioxoimidazolidine
Formula: C7H10N2O3
CAS: 67867-38-3
Molecular weight: 170
m/z	intensity
40	40
41	160
42	170
43	290
44	40
56	80
57	70
58	140
70	999
71	40
72	10
84	30
85	20
99	10
100	130
101	20
127	20
129	500
130	30
155	240
156	20
170	460
