Mass Spectrum: 1-Methyl-3-isopentyl-2,4,5-trioxoimidazolidine
Formula: C9H14N2O3
CAS: 67867-40-7
Molecular weight: 198
m/z	intensity
40	30
41	410
42	180
43	350
44	80
53	30
54	20
55	560
56	520
57	160
58	340
59	20
60	30
67	10
68	20
69	130
70	999
71	70
72	70
73	40
85	10
86	40
98	20
100	60
112	10
113	100
114	30
128	10
129	580
130	450
131	20
141	60
142	520
143	40
155	10
156	30
170	20
183	10
198	280
