Mass Spectrum: 1-Methyl-3-.beta.-phenylethyl-2,4,5-trioxoimidazolidine
Formula: C12H12N2O3
CAS: 67867-43-0
Molecular weight: 232
m/z	intensity
41	20
50	10
51	30
52	10
56	80
57	20
58	10
63	20
64	10
65	70
70	10
77	40
78	30
79	10
89	10
90	10
91	420
92	40
103	30
104	999
105	100
147	10
232	50
