Mass Spectrum: Oxirane, heptadecyl-
Formula: C19H38O
CAS: 67860-04-2
Molecular weight: 282
m/z	intensity
25	0
26	3
27	115
28	4
29	400
30	11
31	57
33	1
37	0
38	0
39	73
40	18
41	778
42	156
43	951
44	37
45	55
46	1
50	0
51	2
52	1
53	44
54	176
55	811
56	252
57	619
58	205
59	84
60	2
61	0
65	7
66	71
67	457
68	538
69	523
70	184
71	667
72	57
73	9
74	3
75	1
77	5
78	1
79	33
80	47
81	444
82	999
83	556
84	129
85	237
86	24
87	4
88	0
91	3
92	0
93	13
94	28
95	377
96	733
97	433
98	81
99	51
100	11
101	3
103	1
105	0
107	4
108	13
109	192
110	210
111	186
112	46
113	36
114	7
115	3
121	3
122	11
123	129
124	131
125	87
126	26
127	26
128	3
129	1
135	5
136	6
137	77
138	85
139	35
140	19
141	12
142	2
143	0
149	1
150	1
151	27
152	44
153	18
154	15
155	7
156	1
157	0
163	0
164	0
165	13
166	29
167	12
168	13
169	6
170	0
178	0
179	9
180	23
181	8
182	11
183	6
184	0
185	0
192	0
193	11
194	25
195	5
196	9
197	4
198	0
199	0
205	0
207	12
208	24
209	5
210	3
211	3
212	0
213	0
214	0
221	8
222	28
223	4
224	19
225	10
226	1
227	4
228	0
235	4
236	29
237	5
238	3
239	4
240	1
241	6
242	0
249	1
250	27
251	5
252	2
253	3
254	1
263	0
264	46
265	8
280	0
281	1
282	16
283	3
284	0
