Mass Spectrum: 1-tert-Butyl-3-methyl-2,4,5-trioxoimidazolidine
Formula: C8H12N2O3
CAS: 67867-39-4
Molecular weight: 184
m/z	intensity
40	20
41	250
42	40
54	10
55	40
56	420
57	999
58	100
70	40
84	350
85	20
100	20
129	190
130	10
169	80
184	60
