Mass Spectrum: 2-Pyrazoline-3-carbonitrile, 1-benzoyl-
Formula: C11H9N3O
CAS: 67872-68-8
Molecular weight: 199
m/z	intensity
34	1
37	16
38	38
39	82
40	90
41	10
42	7
43	3
44	14
49	2
50	124
51	333
52	26
53	8
55	1
62	1
63	7
64	14
65	3
66	7
67	1
73	2
74	28
75	23
76	60
77	627
78	42
93	1
103	9
105	999
106	70
199	63
200	7
