Mass Spectrum: Glycerol, 3TMS derivative
Formula: C12H32O3Si3
CAS: 6787-10-6
Molecular weight: 308
m/z	intensity
15	1
27	2
28	2
29	5
30	1
31	2
39	4
41	25
42	2
43	20
44	18
45	96
46	7
47	13
49	1
52	2
53	1
54	1
55	11
56	4
57	8
58	18
59	75
60	8
61	11
62	1
66	5
67	1
69	1
70	3
71	5
72	23
73	999
74	85
75	84
76	4
77	3
83	1
85	6
86	1
87	6
88	7
89	25
90	3
91	2
95	1
99	4
100	1
101	53
102	7
103	307
104	28
105	17
106	1
107	1
111	1
113	6
114	1
115	16
116	28
117	322
118	32
119	29
120	3
121	2
128	1
129	71
130	9
131	54
132	8
133	199
134	29
135	18
136	2
143	1
145	3
147	733
148	116
149	75
150	8
151	3
159	4
160	1
161	3
162	1
163	9
164	1
165	1
173	1
174	2
175	37
176	6
177	31
178	5
179	2
187	1
189	6
190	1
191	34
192	6
193	3
203	26
204	53
205	376
206	74
207	35
208	4
209	1
217	18
218	113
219	24
220	11
221	5
222	1
263	2
264	1
293	10
294	3
295	1
