Mass Spectrum: 1H-Inden-5-ol, 2,3,5,6,7,7a-hexahydro-7a-methyl-1-[(tetrahydro-2H-pyran-2-yl)oxy]-, (1.alpha.,5.alpha.,7a.alpha.)-
Formula: C15H24O3
CAS: 67884-35-9
Molecular weight: 252
m/z	intensity
84	50
85	999
86	70
106	90
108	60
132	140
133	30
135	20
150	800
151	110
152	10
166	60
167	20
168	20
234	100
