Mass Spectrum: 12-Methyl -13-oxa-10-azatetracyclo[8.7.0.0{2,7}.0{11,15}]heptadeca-2(7),3,5,11(15)-tetraene-14,16-dione
Formula: C16H15NO3
CAS: 67883-33-4
Molecular weight: 269
m/z	intensity
34	4
36	2
37	12
38	59
39	271
40	143
41	161
42	402
43	505
44	367
45	34
46	1
50	148
51	476
52	306
53	484
54	93
55	62
56	175
57	80
60	1
61	5
62	54
63	247
64	87
65	276
66	113
67	93
68	53
69	62
70	36
71	16
74	46
75	96
76	99
77	515
78	157
79	116
80	266
81	70
82	33
84	933
85	53
86	21
87	24
88	20
89	154
90	54
91	610
92	75
93	13
94	25
95	24
96	75
97	54
99	40
101	46
102	120
103	241
104	107
105	108
106	11
108	8
109	6
110	2
111	8
113	26
114	34
115	999
116	364
117	474
118	55
119	5
122	3
123	13
124	6
125	14
126	36
127	173
128	411
129	465
130	818
131	312
132	241
133	21
135	19
138	8
139	50
140	48
141	76
142	34
143	56
144	65
145	16
151	3
152	163
153	41
154	85
155	29
156	54
157	11
158	2
160	2
165	8
166	19
167	79
168	102
169	47
170	92
171	11
172	6
179	6
180	44
181	17
182	150
183	46
184	89
185	18
193	3
194	59
195	44
196	250
197	55
198	94
199	10
200	4
201	2
207	1
208	13
209	3
210	29
211	11
212	51
213	10
221	3
222	35
223	22
224	94
225	22
226	106
227	14
239	3
240	483
241	136
242	15
251	23
252	10
253	3
254	124
255	15
256	3
268	161
269	685
270	126
271	10
