Mass Spectrum: 1H-Indene-5-propanoic acid, 2,3,3a,6,7,7a-hexahydro-.beta.,7a-dimethyl-1-[(tetrahydro-2H-pyran-2-yl)oxy]-3a-[(trimethylsilyl)oxy]-, methyl ester
Formula: C23H40O5Si
CAS: 67884-43-9
Molecular weight: 424
m/z	intensity
75	80
84	70
85	999
86	70
153	50
166	60
181	70
182	50
207	50
221	90
230	50
232	50
239	60
249	120
250	50
280	600
281	220
282	280
283	70
293	50
296	50
322	70
323	40
324	50
325	10
349	70
350	20
366	240
367	70
368	20
424	12
