Mass Spectrum: 4-Hexenoic acid, 6-hydroxy-4-methyl-, methyl ester, (Z)-
Formula: C8H14O3
CAS: 67884-44-0
Molecular weight: 158
m/z	intensity
39	660
40	160
41	999
42	140
43	570
44	320
50	130
51	200
52	100
53	290
54	140
55	490
56	540
65	110
67	680
69	380
71	180
77	100
79	130
81	120
82	110
83	210
84	100
91	130
98	490
99	100
111	290
126	100
