Mass Spectrum: Biphenyl, 2,2',4,5,5'-pentabromo-
Formula: C12H5Br5
CAS: 67888-96-4
Molecular weight: 544
m/z	intensity
45	0
48	0
49	55
50	226
51	83
52	1
55	8
56	0
57	0
61	306
62	316
63	46
64	0
67	0
68	0
69	0
73	277
74	999
75	513
76	22
77	0
79	52
80	63
81	50
82	60
84	16
85	118
86	146
87	52
88	3
89	1
90	0
91	1
93	4
94	0
95	1
96	2
97	63
98	476
99	387
100	60
101	31
102	26
103	1
104	11
105	1
106	11
107	1
108	5
109	71
110	121
111	79
112	13
114	420
115	438
117	18
118	14
119	14
120	16
121	32
122	201
123	235
124	57
125	2
127	0
128	29
129	6
130	30
131	3
132	0
133	0
134	2
135	6
136	0
137	0
139	0
141	19
142	14
143	8
144	2
145	7
146	75
147	59
148	236
149	504
150	61
151	1
152	24
154	253
155	216
157	0
158	0
160	0
162	0
164	1
165	2
166	2
167	2
168	0
176	6
177	4
178	29
179	11
180	20
181	8
182	2
183	0
184	0
188	0
189	1
190	1
191	5
193	88
194	267
195	275
196	91
199	0
200	0
201	0
202	10
203	2
204	9
205	1
206	0
207	0
208	0
226	2
227	15
228	495
229	78
230	488
231	56
232	18
233	72
234	108
235	78
236	14
257	2
258	1
259	8
260	3
261	2
262	0
269	0
271	0
272	1
273	12
274	29
275	28
276	12
277	0
281	0
282	0
283	0
284	1
285	0
286	0
306	11
307	28
308	32
309	61
310	19
311	27
312	1
336	1
338	7
340	7
342	0
362	0
364	0
386	124
388	383
390	402
391	41
392	113
393	8
465	35
467	155
469	242
471	168
472	13
473	30
474	1
544	10
545	0
546	73
548	151
550	153
552	76
553	2
554	8
555	0
