Mass Spectrum: Acetimide, N-(6,7,9,10-tetrahydro-1,2,3,10-tetramethoxy-9-oxo-5H-10,12a-epoxybenzo(a)heptalen-7-yl)-
Formula: C22H25NO7
CAS: 6788-02-9
Molecular weight: 415
m/z	intensity
42	18
43	999
45	9
47	4
49	11
51	11
52	2
53	9
54	9
55	7
59	58
60	5
63	7
65	8
67	4
68	3
69	4
75	4
77	12
78	4
79	4
83	1
84	4
86	3
89	5
91	8
95	1
96	5
101	5
102	6
103	5
105	4
107	1
113	6
115	25
116	6
117	2
118	3
121	1
126	8
127	14
128	15
129	9
130	5
131	4
133	3
135	2
139	20
140	10
141	13
142	6
143	5
144	4
145	4
149	1
151	9
152	13
153	12
154	10
155	12
156	8
157	7
158	4
159	1
163	4
164	1
165	15
166	7
167	11
168	12
169	11
170	7
171	7
172	4
173	4
176	3
177	4
178	5
179	4
180	5
181	20
182	10
183	11
184	11
185	9
186	4
187	4
188	1
191	4
192	7
193	5
194	6
195	11
196	11
197	11
198	8
199	7
200	5
201	4
205	4
206	3
207	6
208	6
209	8
210	9
211	14
212	12
213	10
214	2
215	7
216	3
219	4
220	1
221	4
222	6
223	11
224	11
225	11
226	12
227	11
228	7
229	5
230	3
231	4
233	6
235	1
236	5
237	7
238	19
239	18
240	15
241	10
242	7
243	8
244	4
250	5
251	8
252	9
253	10
254	19
255	19
256	11
257	10
258	11
259	1
263	2
265	8
266	11
267	12
268	15
269	15
270	20
271	10
272	8
273	4
274	4
275	1
280	5
281	10
282	39
283	20
284	18
285	6
286	84
288	67
289	8
293	4
294	4
295	4
296	7
297	29
298	30
299	5
300	31
301	5
309	5
310	35
311	11
312	19
313	33
314	34
315	7
316	2
324	20
325	3
326	25
327	7
328	10
329	3
330	2
340	9
341	18
342	41
343	10
344	3
356	10
358	42
359	7
372	7
373	478
374	101
375	15
383	6
384	2
415	48
416	13
