Mass Spectrum: Hypophosphoric acid, tetraethyl ester
Formula: C8H20O6P2
CAS: 679-37-8
Molecular weight: 274
m/z	intensity
41	21
43	156
44	52
45	218
47	219
65	999
66	26
77	38
78	73
81	863
82	370
83	206
91	165
92	51
93	390
94	34
99	860
109	274
110	165
111	343
121	411
122	27
125	69
126	206
127	770
128	70
137	22
138	390
139	52
144	44
145	715
146	96
147	26
153	22
154	206
155	580
156	41
161	515
162	595
163	247
173	233
174	69
184	21
186	36
189	33
190	149
191	284
201	219
202	66
203	21
218	96
219	247
230	45
231	21
246	64
247	118
274	27
