Mass Spectrum: Roflurane
Formula: C3H4BrF3O
CAS: 679-90-3
Molecular weight: 192
m/z	intensity
14	2
15	136
16	1
27	1
28	10
29	21
30	2
31	32
32	13
33	3
35	6
37	1
41	1
43	2
44	4
45	2
46	0
47	27
50	3
51	70
52	0
59	0
60	10
61	0
62	0
63	59
64	2
65	0
69	2
79	22
80	4
81	999
82	55
83	4
85	1
91	3
92	3
93	8
94	10
95	3
96	1
97	1
98	0
99	1
109	1
110	4
111	112
112	5
113	113
114	1
122	1
123	3
124	0
125	2
126	0
128	0
129	3
131	3
139	13
141	13
142	8
143	2
144	6
145	1
146	1
148	1
160	4
161	44
162	5
163	43
164	1
173	9
175	8
192	12
193	0
194	12
