Mass Spectrum: Disulfide, bis(pentafluoroethyl)
Formula: C4F10S2
CAS: 679-77-6
Molecular weight: 302
m/z	intensity
12	5
19	2
24	1
31	131
32	48
33	1
34	2
43	1
44	17
45	1
46	1
50	44
51	3
56	1
59	1
62	1
63	200
64	358
65	14
66	31
69	541
70	6
76	9
78	1
81	1
82	121
83	4
84	5
85	1
94	4
95	4
100	21
101	38
102	1
103	2
113	9
114	17
115	1
116	2
119	999
120	21
132	18
133	11
134	1
145	18
146	1
147	2
151	25
152	1
153	1
164	104
165	4
166	9
183	308
184	11
185	27
233	26
234	1
235	2
251	2
252	1
283	114
284	8
285	10
286	1
302	469
303	29
304	42
305	2
306	1
