Mass Spectrum: 2-Methyl-3-vinyl-oxirane
Formula: C5H8O
CAS: 6790-37-0
Molecular weight: 84
m/z	intensity
25	8
26	93
27	303
28	122
29	213
30	7
31	28
33	1
35	0
36	3
37	46
38	117
39	999
40	351
41	375
42	60
43	371
44	33
45	538
46	13
47	2
48	2
49	13
50	17
51	20
52	6
53	46
54	18
55	862
56	357
57	100
58	12
59	0
60	2
61	5
62	8
63	9
64	2
65	19
66	44
67	22
68	16
69	279
70	34
71	2
81	2
82	6
83	395
84	43
85	2
