Mass Spectrum: Cyclopentanemethanamine, 5-amino-2,2,4-trimethyl-
Formula: C9H20N2
CAS: 67907-32-8
Molecular weight: 156
m/z	intensity
15	4
16	1
17	2
26	1
27	19
28	59
29	30
30	529
31	17
32	2
38	1
39	24
40	5
41	103
42	39
43	98
44	78
45	29
47	9
50	1
51	4
52	2
53	18
54	17
55	105
56	240
57	115
58	29
59	7
63	1
65	7
66	3
67	56
68	52
69	103
70	727
71	276
72	49
73	88
74	4
77	9
78	2
79	21
80	10
81	36
82	224
83	999
84	291
85	44
86	25
87	57
88	3
91	12
92	2
93	16
94	12
95	219
96	99
97	231
98	36
99	93
100	8
101	1
105	6
106	3
107	40
108	11
109	42
110	47
111	11
112	74
113	11
114	6
115	9
119	1
120	3
121	5
122	22
123	11
124	386
125	38
126	78
127	8
128	9
129	99
130	9
134	1
135	1
136	4
137	6
138	18
139	250
140	30
141	18
142	3
150	1
151	2
152	1
153	1
155	3
156	79
157	32
158	3
