Mass Spectrum: 1H-Cycloprop[e]azulene, decahydro-1,1,4,7-tetramethyl-
Formula: C15H26
CAS: 6790-78-9
Molecular weight: 206
m/z	intensity
27	201
28	87
29	250
30	8
31	4
37	5
38	9
39	201
40	47
41	706
42	71
43	207
44	3
45	6
46	1
48	2
49	4
50	20
51	39
52	21
53	168
54	38
55	490
56	56
57	73
58	24
59	4
60	2
61	1
62	1
63	11
64	6
65	61
66	29
67	393
68	77
69	469
70	41
71	31
72	2
73	4
74	2
75	3
76	2
77	140
78	37
79	258
80	65
81	652
82	999
83	156
84	17
85	9
86	2
88	0
89	4
90	2
91	175
92	41
93	345
94	147
95	615
96	132
97	41
98	7
99	2
100	1
102	2
103	11
104	6
105	103
106	20
107	523
108	151
109	318
110	159
111	23
112	3
113	1
114	1
115	10
116	3
117	14
118	4
119	38
120	18
121	328
122	359
123	182
124	66
125	8
126	1
127	2
128	3
129	5
130	1
131	4
132	0
133	22
134	8
135	345
136	73
137	26
138	7
139	1
141	0
145	1
146	1
147	11
148	10
149	114
150	132
151	19
152	1
159	1
160	1
161	18
162	18
163	487
164	84
165	7
175	1
176	0
177	16
178	3
179	0
187	0
189	5
190	1
191	73
192	10
193	0
202	0
204	8
205	3
206	314
207	48
208	3
