Mass Spectrum: Butanoic acid, 3-methyl-, (7-formylcyclopenta(c)pyran-4-yl)methyl ester
Formula: C15H16O4
CAS: 67910-07-0
Molecular weight: 260
m/z	intensity
39	17
40	5
41	93
42	16
49	1
50	23
51	67
52	17
53	15
55	22
56	4
57	713
58	33
59	13
61	5
62	27
63	76
64	11
65	40
66	13
69	18
72	1
74	29
75	53
76	61
77	252
83	5
85	999
86	65
87	21
88	13
89	90
90	22
91	107
92	16
98	5
99	3
100	2
101	41
102	171
103	204
113	1
114	1
115	15
116	15
117	21
118	18
119	34
120	35
127	1
128	2
129	44
130	39
131	165
143	6
144	4
145	28
146	13
147	88
148	74
157	3
158	25
159	305
171	3
172	2
173	85
174	25
175	154
176	424
177	57
185	1
189	7
190	1
200	1
201	1
203	3
217	9
218	10
231	1
245	1
259	9
260	721
261	120
262	16
263	2
