Mass Spectrum: Indeno[3a,4-b]oxiren-2-ol, octahydro-4a-methyl-5-[(tetrahydro-2H-pyran-2-yl)oxy]-, (1a.alpha.,2.beta.,4a.beta.,5.beta.,7aS*)-
Formula: C15H24O4
CAS: 67920-65-4
Molecular weight: 268
m/z	intensity
84	50
85	999
86	50
91	16
93	23
95	16
97	20
105	10
107	35
109	15
122	17
123	16
136	10
137	9
138	11
140	68
141	8
149	16
150	10
166	63
167	25
183	25
184	6
