Mass Spectrum: Diaziridine, 1,2-dipropyl-
Formula: C7H16N2
CAS: 6794-92-9
Molecular weight: 128
m/z	intensity
27	107
28	81
29	38
30	150
31	3
32	0
33	1
37	0
38	0
39	19
40	5
41	206
42	277
43	607
44	85
45	12
50	0
51	1
52	1
53	1
54	10
55	6
56	44
57	999
58	134
59	4
60	0
65	0
67	0
68	4
69	1
70	86
71	79
72	73
73	4
74	0
75	1
77	0
78	0
81	0
82	0
83	1
84	2
85	98
86	36
87	2
91	2
92	1
96	0
97	2
98	1
99	916
100	62
101	2
105	0
111	0
113	10
114	0
126	0
127	9
128	56
129	9
130	0
