Mass Spectrum: 3-Oxatricyclo[3.2.1.0(2,4)]Octane-6-carboxylic acid, 8-(trimethylsilyl)-, methyl ester
Formula: C12H20O3Si
CAS: 67957-47-5
Molecular weight: 240
m/z	intensity
27	41
28	6
29	23
31	20
39	55
40	8
41	25
42	6
43	84
44	32
45	180
46	12
47	26
50	6
51	22
52	12
53	39
54	5
55	95
56	6
57	17
58	20
59	242
60	18
61	35
62	4
63	13
65	95
66	36
67	16
68	13
69	20
70	9
71	13
72	15
73	964
74	98
75	315
76	27
77	77
78	28
79	137
80	24
81	78
82	41
83	35
84	5
85	29
87	31
88	6
89	759
90	71
91	999
92	106
93	52
94	8
95	31
96	6
97	11
98	19
99	37
100	47
101	26
102	16
103	42
104	8
105	43
106	12
107	65
108	27
109	18
110	5
111	57
112	9
113	16
115	7
116	8
117	7
118	37
119	163
120	15
121	30
122	18
123	22
124	8
125	16
126	6
127	10
129	11
131	7
133	25
134	6
135	143
136	31
137	20
138	8
139	67
140	7
141	22
142	5
143	47
144	7
145	6
146	5
147	35
148	6
149	65
150	28
151	53
152	9
153	16
154	61
155	13
156	7
157	4
159	21
160	4
163	7
165	278
166	42
167	35
168	6
169	7
171	5
172	6
173	4
175	6
177	4
179	52
180	282
181	230
182	42
183	14
185	8
193	54
194	9
195	11
197	18
207	11
209	20
210	4
211	4
213	34
214	5
225	280
226	48
227	16
239	4
240	19
241	5
