Mass Spectrum: 1,2,3-Butanetrione, 1-phenyl-, 2-oxime
Formula: C10H9NO3
CAS: 6797-44-0
Molecular weight: 191
m/z	intensity
51	130
60	90
77	710
78	70
105	999
106	60
122	180
131	180
145	12
147	10
148	8
149	8
174	4
175	6
191	8
