Mass Spectrum: N-(1-Hydroxy-2,2,2-trichloroethyl)benzyl urethane
Formula: C10H10Cl3NO3
CAS: 6798-34-1
Molecular weight: 297
m/z	intensity
43	120
51	120
65	130
77	220
79	420
82	300
83	120
84	190
90	240
91	800
107	550
108	999
111	120
151	180
179	14
180	13
181	7
244	17
245	9
246	11
297	7
299	8
301	2
