Mass Spectrum: 9H-Xanthene-9-carboxylic acid, 2-(isopropyl-methyl-amino)-ethyl ester
Formula: C20H23NO3
CAS: 67992-62-5
Molecular weight: 325
m/z	intensity
15	1
27	8
29	4
30	11
38	1
39	7
40	1
41	23
42	60
43	41
44	192
45	6
50	3
51	7
52	1
53	1
54	3
55	4
56	49
57	37
58	66
59	2
62	2
63	8
64	1
65	1
68	2
69	1
70	17
71	21
72	7
73	1
74	5
75	8
76	11
77	11
78	2
82	2
84	51
85	16
86	999
87	73
88	3
89	2
90	5
98	4
99	171
100	26
101	6
102	9
103	1
104	1
111	1
113	2
114	3
115	2
116	1
125	3
126	20
127	20
128	3
131	1
139	2
142	1
149	1
150	18
151	50
152	153
153	20
154	1
155	2
163	1
165	2
168	1
179	5
180	17
181	649
182	100
183	8
184	1
194	1
195	1
196	1
197	1
207	1
208	2
209	1
225	1
253	2
310	121
311	26
312	3
324	3
325	13
326	3
