Mass Spectrum: 4a,7-Methano-4aH-naphth[1,8a-b]oxirene, octahydro-4,4,8,8-tetramethyl-
Formula: C15H24O
CAS: 67999-56-8
Molecular weight: 220
m/z	intensity
27	274
29	306
30	15
31	19
39	301
40	73
41	666
42	122
43	695
44	57
45	25
51	73
53	340
54	81
55	999
56	162
57	190
58	40
59	45
63	40
64	46
65	252
66	128
67	763
68	125
69	985
71	135
72	126
73	70
77	558
78	146
79	725
80	161
81	682
82	248
83	623
84	128
85	225
87	75
91	789
92	180
93	917
94	227
95	720
96	163
97	145
98	59
99	58
103	101
104	66
105	525
106	262
107	726
108	898
109	786
110	170
111	147
112	269
113	153
115	111
116	55
118	85
119	359
120	278
121	849
122	355
123	316
124	98
125	70
128	60
129	61
130	55
131	236
132	73
133	294
134	152
135	507
136	222
137	189
138	126
139	61
140	351
141	71
143	55
145	157
146	70
147	151
148	111
149	697
150	268
151	420
152	140
153	52
159	329
160	85
163	217
164	563
165	108
174	44
175	70
176	95
177	776
178	160
179	74
187	122
188	34
189	43
191	173
192	161
202	67
205	688
206	246
207	36
220	588
221	224
222	33
