Mass Spectrum: Benzenesulfonamide, 4-methyl-N-phenyl-
Formula: C13H13NO2S
CAS: 68-34-8
Molecular weight: 247
m/z	intensity
15	1
16	1
17	2
18	7
26	4
27	18
28	4
32	1
37	9
38	34
39	255
40	22
41	40
42	2
44	1
45	8
48	4
49	1
50	24
51	53
52	27
53	9
54	3
58	1
61	6
62	22
63	89
64	53
65	551
66	49
67	9
69	4
70	1
71	2
73	1
74	5
75	5
76	5
77	35
78	13
79	9
80	3
82	1
85	2
86	3
87	3
88	2
89	49
90	32
91	999
92	536
93	78
94	4
95	1
97	1
102	1
103	1
104	2
105	1
106	3
107	5
108	2
109	1
110	1
111	5
115	9
116	3
117	1
118	1
121	2
122	1
123	4
124	1
127	3
128	6
129	4
130	2
139	34
140	7
141	11
142	3
143	2
151	2
152	3
153	4
154	4
155	349
156	35
157	18
158	1
163	1
164	1
165	8
166	7
167	36
168	117
169	14
170	1
179	1
180	12
181	9
182	150
183	66
184	8
194	7
195	1
246	1
247	344
248	54
249	20
250	3
