Mass Spectrum: Trimethaphan camsylate
Formula: C32H40N2O5S2
CAS: 68-91-7
Molecular weight: 596
m/z	intensity
41	3
43	2
45	4
51	4
53	2
54	2
55	11
56	3
57	8
58	2
59	3
60	3
61	5
63	3
64	3
65	39
67	25
68	7
69	22
70	5
71	17
72	2
73	8
74	3
75	10
77	47
78	12
79	22
80	6
81	37
82	12
83	12
84	3
85	36
86	4
87	18
88	3
89	33
91	999
92	72
93	18
94	6
95	13
97	25
98	2
99	22
100	10
101	8
102	3
103	11
104	29
105	39
106	29
107	25
109	81
110	4
111	21
112	7
113	7
115	17
117	20
118	9
119	13
120	3
121	19
122	2
123	34
124	3
125	9
126	4
127	7
128	9
129	11
130	14
131	6
132	51
133	13
135	9
136	4
137	36
138	2
139	9
140	6
141	11
142	5
143	8
144	14
145	8
147	11
149	46
150	8
151	35
152	38
153	3
154	5
156	2
157	5
158	4
159	5
161	3
163	5
164	3
165	8
166	7
167	9
168	10
169	9
170	3
171	7
172	4
173	13
174	10
175	5
176	2
177	2
178	2
179	2
180	7
181	19
182	3
183	17
184	3
185	11
187	163
188	21
189	8
190	2
191	2
192	2
193	6
194	4
195	3
197	3
198	2
199	8
200	8
201	3
202	2
203	2
204	2
209	2
211	2
212	3
213	5
214	6
215	4
216	2
217	2
219	7
220	2
225	2
227	20
228	12
229	3
230	6
231	8
232	2
239	8
240	31
241	44
242	6
244	17
245	11
246	4
247	2
257	2
259	38
260	5
261	3
264	74
265	80
266	12
272	2
273	73
274	42
275	8
276	14
277	320
278	57
279	14
281	2
287	2
289	3
291	20
303	17
305	10
309	12
311	5
317	27
318	2
319	23
321	2
323	7
324	3
331	3
335	6
337	3
349	5
351	3
352	2
353	3
362	2
363	7
364	105
365	46
366	15
367	2
372	1
380	2
381	15
382	12
383	3
395	2
396	4
400	16
401	4
402	7
410	17
411	4
427	7
505	16
507	6
596	4
