Mass Spectrum: Difluoromalonic acid,diethyl ester
Formula: C7H10F2O4
CAS: 680-65-9
Molecular weight: 196
m/z	intensity
27	604
28	254
29	999
31	188
32	5
33	3
39	2
40	2
41	10
42	16
43	59
44	19
45	138
46	5
47	7
48	3
50	49
51	57
52	1
55	4
56	1
57	3
59	43
60	6
63	1
65	3
67	1
68	2
69	1
70	1
71	1
73	16
74	1
75	3
77	18
78	127
79	19
80	16
81	1
83	1
85	1
87	3
91	2
93	26
94	15
96	870
97	26
98	5
104	4
105	2
113	1
119	1
121	11
123	106
124	201
125	43
126	2
139	8
141	5
149	1
151	42
152	4
153	16
154	1
167	2
169	3
195	1
