Mass Spectrum: Pentafluoropropionic acid, butyl ester
Formula: C7H9F5O2
CAS: 680-28-4
Molecular weight: 220
m/z	intensity
14	1
15	5
26	19
27	176
28	112
29	380
30	12
31	31
32	1
33	8
37	3
38	10
39	152
40	34
41	881
42	56
43	189
44	16
45	11
47	12
49	1
50	32
51	12
52	3
53	20
54	19
55	205
56	999
57	905
58	41
59	6
61	5
62	1
65	1
67	1
69	277
70	3
71	4
72	3
73	1
75	1
77	1
78	11
80	1
81	9
82	1
83	1
85	1
90	1
93	5
97	7
99	3
100	94
101	7
109	6
117	4
119	784
120	17
127	1
128	16
129	1
145	2
147	65
148	2
149	27
150	1
163	4
165	8
175	1
177	4
178	1
190	1
191	17
192	1
205	1
