Mass Spectrum: Methyl difluoro(fluorosulfonyl)acetate
Formula: C3H3F3O4S
CAS: 680-15-9
Molecular weight: 192
m/z	intensity
14	5
15	535
16	8
20	1
28	11
29	67
30	17
31	73
32	7
33	6
43	3
44	35
45	41
46	1
47	9
48	34
49	2
50	58
51	23
58	1
59	999
60	33
61	6
63	4
64	35
65	121
66	3
67	167
68	43
69	27
70	2
76	1
77	1
78	58
79	14
80	6
81	33
82	7
83	21
84	3
85	4
97	42
98	36
99	3
100	4
109	262
110	8
111	11
113	1
124	1
133	25
134	1
135	1
148	4
161	2
