Mass Spectrum: Morphinan-3,14-diol, 4,5-epoxy-17-methyl-, (5.alpha.)-
Formula: C17H21NO3
CAS: 6801-26-9
Molecular weight: 287
m/z	intensity
41	240
42	230
43	270
44	999
45	70
46	10
50	40
51	160
52	60
53	120
54	40
55	290
56	100
57	340
58	120
59	70
62	30
63	110
64	190
65	150
66	180
67	230
68	190
69	40
70	230
71	180
72	70
75	50
76	50
77	250
78	90
79	90
80	30
81	40
82	210
83	40
84	70
86	40
87	40
89	70
90	40
91	190
92	40
93	30
94	70
95	30
96	30
97	30
98	50
101	40
102	70
103	110
104	40
105	60
107	40
108	60
115	320
116	90
117	70
118	50
121	40
122	140
123	10
127	120
128	160
129	90
130	40
131	140
132	60
133	30
134	30
136	30
139	50
140	30
141	90
142	40
143	60
144	100
145	80
146	80
147	110
148	50
152	70
153	60
155	60
156	30
157	60
158	40
159	50
160	90
161	90
162	40
164	40
165	90
166	30
167	30
168	40
169	50
170	30
171	90
172	50
173	110
174	90
175	50
176	60
181	50
182	30
183	40
184	50
185	60
186	50
187	100
188	70
189	30
197	50
198	50
199	40
200	70
201	50
202	70
203	70
204	10
211	50
212	90
213	60
214	50
215	40
216	140
217	30
225	30
226	60
227	10
228	40
230	160
231	70
232	10
240	40
268	30
269	30
270	40
286	50
287	380
288	70
289	10
