Mass Spectrum: Glucose propylglycoside tetraacetate
Formula: C17H26O10
CAS: 6802-30-8
Molecular weight: 390
m/z	intensity
41	32
42	20
43	999
44	52
45	16
55	8
57	16
60	28
61	16
69	48
70	44
71	16
73	36
80	8
81	128
82	8
85	32
86	12
97	36
98	84
99	36
101	8
102	100
103	60
109	44
112	68
113	16
115	112
116	20
126	8
127	28
128	8
131	16
139	16
140	48
141	52
143	8
144	44
145	60
155	12
157	100
158	20
169	52
170	8
182	8
197	16
199	12
200	36
201	8
211	8
228	8
242	20
243	32
271	8
