Mass Spectrum: 1,3-Dioxolane-2-ethanol, 2-methyl-, acetate
Formula: C8H14O4
CAS: 68039-72-5
Molecular weight: 174
m/z	intensity
26	7
27	35
28	22
29	33
31	10
33	5
39	32
40	6
41	37
42	43
43	999
44	37
45	35
51	2
53	14
54	22
55	136
56	9
57	7
58	4
59	4
60	4
61	8
69	11
70	7
71	38
72	3
73	9
83	18
84	16
85	4
86	9
87	814
88	41
89	6
99	263
100	17
101	5
113	3
115	4
132	2
159	12
