Mass Spectrum: Cyclohexaneamine, N-but-2-enylidene-N-oxide
Formula: C10H17NO
CAS: 68048-01-1
Molecular weight: 167
m/z	intensity
27	26
28	8
29	30
30	3
31	1
38	3
39	97
40	13
41	341
42	25
43	31
44	7
45	2
50	3
51	13
52	8
53	82
54	61
55	588
56	35
57	9
58	4
59	3
60	2
63	1
65	8
66	12
67	143
68	87
69	35
70	999
71	32
72	3
77	15
78	6
79	36
80	24
81	84
82	34
83	178
84	70
85	104
86	113
87	5
91	8
92	2
93	10
94	26
95	10
96	21
97	4
98	4
99	2
105	6
106	6
107	6
108	39
109	9
110	9
111	4
112	4
113	1
119	2
120	5
121	3
122	28
123	8
124	12
125	5
126	4
133	3
134	4
135	3
136	32
137	4
138	3
139	7
140	2
148	2
149	15
150	100
151	23
152	236
153	23
154	1
166	9
167	377
168	34
169	3
