Mass Spectrum: Mono-tert-butyl carbonotrithioate
Formula: C5H10S3
CAS: 68060-10-6
Molecular weight: 166
m/z	intensity
27	284
29	579
39	467
41	854
44	187
45	75
46	22
47	146
55	206
56	260
57	729
75	271
76	999
90	617
110	28
133	12
