Mass Spectrum: 1,1'-Biphenyl, 4-acetyl-4'-(4-pentylcyclohexyl)-
Formula: C25H32O
CAS: 68065-88-3
Molecular weight: 348
m/z	intensity
27	68
29	155
39	37
41	240
43	999
44	30
53	46
55	155
56	17
57	68
65	12
67	54
68	10
69	40
71	29
77	14
79	32
81	54
82	20
83	40
89	15
91	24
95	57
96	14
97	46
102	10
109	15
110	54
115	63
116	15
117	19
127	15
128	21
129	15
139	20
141	11
150	18
151	70
152	198
153	59
154	9
163	14
165	255
166	251
167	93
168	11
176	36
177	46
178	388
179	134
180	38
181	109
182	18
189	77
190	33
191	123
192	77
193	95
194	30
195	25
196	18
197	15
198	20
202	19
203	19
204	12
205	16
207	649
208	166
209	644
210	134
211	11
217	28
218	9
221	137
222	546
223	140
224	29
233	16
235	170
236	159
237	20
247	10
261	11
333	276
334	93
335	19
348	722
349	198
350	42
