Mass Spectrum: Monopropyl carbonotrithioate
Formula: C4H8S3
CAS: 68060-07-1
Molecular weight: 152
m/z	intensity
29	154
39	44
41	151
42	193
43	195
44	96
45	54
46	53
47	208
61	23
66	4
76	999
108	4
110	3
119	3
