Mass Spectrum: Monoisopropyl carbonotrithioate
Formula: C4H8S3
CAS: 68060-08-2
Molecular weight: 152
m/z	intensity
27	157
39	84
41	236
42	159
43	283
44	105
45	23
46	6
47	22
61	84
66	7
76	999
108	7
110	5
119	3
152	5
