Mass Spectrum: p-(2-Acetoxyethoxy)toluene
Formula: C11H14O3
CAS: 6807-11-0
Molecular weight: 194
m/z	intensity
14	3
15	20
18	1
26	6
27	21
28	9
29	6
37	1
38	4
39	27
40	3
41	9
42	12
43	675
44	18
45	10
49	1
50	9
51	24
52	16
53	14
54	1
55	3
61	4
62	4
63	15
64	5
65	53
66	5
67	2
73	2
74	2
75	2
76	2
77	57
78	19
79	27
80	10
81	2
86	9
87	999
88	46
89	17
90	19
91	109
92	9
93	9
94	2
105	11
106	3
107	97
108	141
109	14
110	1
119	6
120	1
121	17
122	3
133	3
134	9
135	7
136	2
152	3
194	31
195	5
