Mass Spectrum: 4'-Pentylbicyclohexyl-4-carboxamide
Formula: C18H33NO
CAS: 68077-63-4
Molecular weight: 279
m/z	intensity
39	261
41	999
43	922
44	375
45	20
51	36
53	220
55	781
56	83
57	64
58	67
59	60
65	63
67	398
69	209
71	131
72	144
77	95
79	206
81	390
83	213
84	39
85	47
86	31
91	74
93	56
95	111
96	26
97	59
98	42
107	40
108	23
109	47
124	48
126	278
128	30
131	21
196	52
278	20
279	141
280	28
