Mass Spectrum: Pseudodiosgenin
Formula: C27H42O3
CAS: 6808-14-6
Molecular weight: 414
m/z	intensity
41	508
43	527
45	95
51	7
53	130
55	548
57	342
58	6
59	24
65	90
67	441
69	286
70	7
71	52
73	32
77	173
79	334
81	308
82	15
83	90
84	17
85	48
87	11
91	338
93	287
95	999
97	181
98	12
99	13
103	31
105	331
107	262
108	308
109	459
110	60
111	49
113	18
115	76
117	126
119	199
121	376
122	75
123	95
124	18
125	36
126	5
127	20
128	34
129	71
131	131
133	130
135	132
137	31
139	119
140	8
141	43
143	113
145	165
146	42
147	68
149	70
150	19
151	16
152	42
153	9
154	17
155	28
157	119
159	126
161	95
163	121
164	6
165	30
168	87
169	48
171	63
173	63
175	44
176	4
179	3
181	544
182	134
183	59
185	60
186	24
187	20
188	7
189	4
195	17
197	40
198	36
199	81
200	5
201	30
203	3
209	12
211	38
212	16
213	76
214	30
215	56
216	7
217	6
221	3
223	15
225	70
226	9
227	16
228	6
229	19
230	8
231	54
232	9
234	8
235	7
237	33
239	22
240	82
241	7
243	32
251	8
252	49
253	37
254	11
255	20
256	13
257	12
258	569
259	85
267	8
268	9
269	44
270	125
271	140
272	26
282	9
285	3
287	7
289	12
299	29
300	8
301	10
327	6
341	27
342	18
363	7
396	13
399	13
414	310
415	94
416	17
