Mass Spectrum: 2-[2-[2-[2-[2-[2-[2-[2-[2-[2-(2-Hydroxyethoxy)ethoxy]ethoxy]ethoxy]ethoxy]ethoxy]ethoxy]ethoxy]ethoxy]ethoxy]ethanol
Formula: C22H46O12
CAS: 6809-70-7
Molecular weight: 502
m/z	intensity
15	5
19	6
25	1
26	3
27	15
28	36
29	40
30	9
31	34
32	2
33	1
39	1
40	1
41	20
42	23
43	119
44	99
45	999
46	24
47	3
55	3
56	5
57	25
58	75
59	119
60	6
61	9
62	1
63	1
67	1
68	1
69	6
70	22
71	33
72	87
73	140
74	9
75	27
76	2
77	9
78	1
79	1
80	6
81	1
83	2
84	2
85	3
86	30
87	287
88	99
89	649
90	31
91	8
95	1
96	1
97	1
98	1
99	6
100	5
101	51
102	20
103	63
104	7
105	8
106	1
107	3
112	1
113	10
114	7
115	16
116	11
117	47
118	7
119	11
120	1
121	14
122	1
124	1
127	1
128	1
129	2
130	2
131	84
132	10
133	325
134	22
135	6
141	1
143	1
145	5
146	2
147	14
148	2
149	1
151	3
157	3
158	2
159	6
160	1
161	5
162	1
163	8
164	1
165	3
174	1
175	43
176	4
177	73
178	7
179	2
189	2
191	1
193	1
195	3
201	3
202	1
203	2
205	1
207	8
208	1
209	3
219	9
220	1
221	14
222	2
223	1
239	2
245	1
247	1
251	3
252	1
253	1
263	1
265	4
266	1
283	2
295	2
297	1
309	1
327	1
339	1
383	1
415	2
459	1
