Mass Spectrum: 2-Propanone, 1-hydroxy-, oxime
Formula: C3H7NO2
CAS: 68113-52-0
Molecular weight: 89
m/z	intensity
26	103
27	202
28	194
29	394
30	165
31	999
33	5
36	4
37	27
38	69
39	205
40	185
41	534
42	894
43	61
44	180
45	48
46	22
47	7
50	4
51	18
52	27
53	14
54	35
55	25
56	33
57	90
58	227
59	15
60	356
61	8
70	2
71	407
72	163
73	6
74	18
88	8
89	8
90	7
