Mass Spectrum: cis-3-Hexenylpyruvate
Formula: C9H14O3
CAS: 68133-76-6
Molecular weight: 170
m/z	intensity
26	8
27	124
28	9
29	52
30	2
31	1
38	8
39	154
40	3
41	601
42	54
43	920
44	22
45	3
50	6
51	13
52	7
53	59
54	46
55	999
56	42
57	5
65	15
66	8
67	338
68	27
69	24
70	3
72	5
73	4
77	6
79	11
81	136
82	543
83	102
84	5
97	2
99	28
100	4
127	11
