Mass Spectrum: 1,4,7-Trioxaspiro[4.5]decane
Formula: C7H12O3
CAS: 68130-08-5
Molecular weight: 144
m/z	intensity
26	10
27	69
28	36
29	60
30	8
31	19
33	0
36	2
37	1
38	5
39	67
40	15
41	113
42	350
43	97
44	22
45	45
46	1
50	4
51	4
52	2
53	16
54	9
55	108
56	22
57	10
58	4
59	2
60	0
67	3
68	8
69	30
70	6
71	15
72	5
73	6
81	2
82	1
83	9
84	22
85	5
86	730
87	31
88	3
96	2
97	2
99	999
100	57
101	23
102	15
103	1
112	1
113	3
114	10
115	1
128	3
144	184
145	14
146	1
