Mass Spectrum: Bromoacetic acid, 2-ethylhexyl ester
Formula: C10H19BrO2
CAS: 68144-73-0
Molecular weight: 250
m/z	intensity
26	6
27	42
28	8
29	71
30	2
31	5
36	5
37	1
38	2
39	39
40	9
41	205
42	61
43	201
44	7
45	3
50	2
51	4
53	16
54	17
55	299
56	211
57	787
58	29
59	5
60	1
65	3
66	1
67	17
68	18
69	126
70	999
71	134
72	39
73	6
74	2
77	2
80	9
81	7
82	40
83	298
84	149
85	11
86	2
87	1
91	1
92	2
93	45
94	7
95	44
96	5
97	26
98	28
99	16
100	2
101	3
110	1
111	16
112	197
113	19
115	1
120	6
121	135
122	9
123	130
124	3
129	5
135	2
138	3
139	10
140	3
141	10
151	6
152	22
153	10
154	21
155	3
157	8
193	2
195	2
