Mass Spectrum: Cyclohexanone, 2-octyl-
Formula: C14H26O
CAS: 6814-21-7
Molecular weight: 210
m/z	intensity
41	440
42	76
43	239
45	36
53	36
54	76
55	440
56	114
57	72
58	36
66	40
68	40
69	154
70	315
71	16
81	58
83	358
84	56
97	279
98	999
99	317
111	440
112	34
125	18
167	42
210	80
