Mass Spectrum: 4,7-Methano-1H-inden-1-ol, 3a,4,7,7a-tetrahydro-
Formula: C10H12O
CAS: 6814-80-8
Molecular weight: 148
m/z	intensity
26	8
27	87
28	21
29	19
31	10
37	6
38	18
39	211
40	50
41	72
42	11
43	12
44	2
50	30
51	77
52	32
53	79
54	40
55	46
56	6
57	16
58	3
60	4
61	5
62	15
63	48
64	26
65	98
66	999
67	156
68	20
69	12
70	35
71	4
72	3
73	8
74	11
75	12
76	10
77	104
78	51
79	86
80	50
81	105
82	853
83	74
84	6
85	2
86	2
87	4
89	18
90	6
91	157
92	69
93	13
94	33
95	6
101	4
102	17
103	34
104	30
105	44
106	10
107	22
114	3
115	132
116	44
117	258
118	40
119	50
120	25
121	5
126	4
127	27
128	57
129	134
130	179
131	29
132	4
133	33
134	3
145	2
146	4
147	14
148	58
149	13
