Mass Spectrum: 1H-Pyrazole, 3-chloro-5-methyl-4-nitro-
Formula: C4H4ClN3O2
CAS: 6814-58-0
Molecular weight: 161
m/z	intensity
12	23
13	23
14	80
15	479
16	138
19	15
20	3
24	8
25	22
26	148
27	285
28	957
29	381
30	489
31	191
32	47
33	1
34	1
35	25
36	42
37	68
38	128
39	102
40	97
41	244
42	999
43	112
44	92
45	47
46	44
47	58
48	18
49	102
50	390
51	943
52	195
53	287
54	169
55	66
56	89
57	30
58	22
59	8
60	34
61	92
62	445
63	53
64	147
65	42
66	20
67	32
68	22
69	68
70	13
71	13
72	15
73	27
74	27
75	20
76	18
77	22
78	6
79	71
80	27
81	15
82	6
83	37
84	54
85	191
86	138
87	78
88	70
89	145
90	17
91	51
92	3
93	6
94	3
95	5
96	32
97	13
98	3
99	5
100	5
101	12
102	18
103	13
104	5
105	12
106	1
107	5
108	6
109	15
110	3
111	6
112	1
113	1
114	23
115	10
116	51
117	34
118	15
119	10
121	5
123	1
125	5
126	1
127	1
129	3
130	3
131	18
132	15
133	8
134	5
135	3
137	1
139	1
141	5
142	1
144	494
145	42
146	150
147	12
149	8
150	1
161	282
162	29
163	82
164	6
