Mass Spectrum: N-(2-Chloro-4-pyridyl)-N'-phenylurea
Formula: C12H10ClN3O
CAS: 68157-60-8
Molecular weight: 247
m/z	intensity
12	2
13	1
14	2
15	8
17	3
18	2
25	5
26	26
27	22
28	20
29	2
35	2
36	9
37	55
38	93
39	151
40	66
41	82
42	36
43	6
44	11
45	22
46	8
47	6
48	3
49	13
50	51
51	68
52	93
53	11
54	11
55	2
57	2
59	23
60	8
61	12
62	23
63	79
64	227
65	107
66	325
67	64
68	5
69	1
70	1
71	1
72	6
73	14
74	11
75	16
76	27
77	31
78	5
79	1
80	1
81	2
84	2
85	7
86	8
87	5
88	8
89	3
90	18
91	404
92	71
93	810
94	54
95	2
98	1
99	8
100	12
101	16
102	5
103	6
112	4
114	2
118	1
119	999
120	89
121	5
125	1
126	2
127	5
128	779
129	50
130	248
131	15
141	1
154	138
155	11
156	45
157	4
186	4
229	1
247	46
248	7
249	14
250	2
