Mass Spectrum: 1-Naphthaleneacetic acid, 1,2,3,4-tetrahydro-2-(hydroxyimino)-, methyl ester
Formula: C13H15NO3
CAS: 68157-02-8
Molecular weight: 233
m/z	intensity
26	32
27	187
29	182
30	42
31	448
33	8
37	14
38	36
39	208
40	26
41	71
42	51
43	186
44	71
45	464
46	46
50	318
51	170
52	47
53	31
54	16
55	30
56	10
57	21
58	34
59	181
60	18
61	90
62	50
63	144
64	60
65	160
66	20
70	10
71	13
72	13
73	110
74	86
75	46
76	37
77	136
78	54
79	34
80	8
85	23
86	15
87	25
88	16
89	93
90	37
91	999
92	524
93	38
101	26
102	57
103	69
104	30
105	68
106	8
113	18
114	36
115	639
116	198
117	240
118	33
119	30
126	22
127	126
128	528
129	512
130	135
131	59
132	20
133	32
134	8
139	15
140	52
141	291
142	216
143	141
144	102
145	100
146	23
147	10
153	9
154	50
155	82
156	704
157	206
158	67
159	330
160	302
161	33
166	18
169	9
170	20
171	14
172	69
173	79
174	69
175	11
182	16
183	94
184	439
185	85
186	43
187	72
188	16
189	6
198	7
199	10
200	29
201	133
202	110
203	16
215	83
216	324
217	54
218	8
233	224
234	44
