Mass Spectrum: 2,4,6(1H,3H,5H)-Pyrimidinetrione, 5-(2-pyridinylmethylene)-
Formula: C10H7N3O3
CAS: 68160-61-2
Molecular weight: 217
m/z	intensity
33	2
34	2
36	1
37	8
38	19
39	35
40	39
41	80
42	999
43	116
44	73
45	7
46	3
49	4
50	58
51	60
52	51
53	32
54	5
55	3
56	6
57	2
58	0
59	3
60	5
61	2
62	5
63	21
64	15
65	9
66	5
67	10
68	11
69	48
70	44
71	1
72	2
73	4
74	13
75	16
76	66
77	16
78	44
79	22
80	2
81	0
82	1
83	0
85	96
87	16
88	1
90	13
91	25
92	5
93	2
94	1
95	0
96	0
100	28
101	2
102	6
103	83
104	13
105	5
106	1
107	0
108	0
112	0
115	0
116	1
117	12
118	168
119	51
120	10
121	0
128	257
129	16
130	6
131	10
132	2
133	1
134	0
139	2
144	4
145	39
146	54
147	7
148	1
155	0
157	0
159	1
160	0
161	3
162	0
171	1
172	1
173	10
174	26
175	2
176	0
188	2
189	8
190	1
202	0
214	0
215	0
216	13
217	129
218	14
219	9
220	0
