Mass Spectrum: Phenol, 4-(5-mercapto-1,3,4-thiadiazol-2-yl)amino-
Formula: C8H7N3OS2
CAS: 68161-62-6
Molecular weight: 225
m/z	intensity
33	88
34	30
35	9
36	21
37	120
38	355
39	768
40	162
41	148
42	248
44	600
45	193
46	68
47	35
49	20
50	171
51	203
52	269
53	276
54	38
55	59
59	999
60	131
62	159
63	352
64	381
65	579
66	104
67	52
68	64
69	43
70	33
71	20
72	35
73	118
74	50
76	571
77	128
78	127
79	150
80	132
81	120
82	19
83	17
84	14
85	19
86	0
88	24
90	53
91	56
93	331
94	68
95	27
96	32
97	20
98	4
99	8
102	6
103	6
105	76
107	93
108	53
109	36
111	49
112	20
113	4
116	10
117	6
119	31
120	110
121	21
122	11
123	11
124	13
125	22
126	2
132	7
133	20
134	94
135	22
137	44
138	22
139	27
140	2
148	9
149	33
151	85
152	80
153	9
154	2
163	0
166	219
167	77
168	9
169	0
196	0
208	7
224	36
225	278
226	26
227	21
