Mass Spectrum: 2-Methyl-6-propylpiperidine
Formula: C9H19N
CAS: 68170-79-6
Molecular weight: 141
m/z	intensity
41	134
42	103
43	140
44	196
45	20
46	9
47	2
48	1
49	6
50	3
51	11
52	5
53	19
54	24
55	126
56	108
57	29
58	13
59	1
60	5
61	2
62	1
63	2
64	1
65	6
66	2
67	24
68	20
69	32
70	93
71	22
72	15
73	5
74	1
75	1
76	1
77	12
78	20
79	7
80	5
81	37
82	22
83	11
84	41
85	7
86	5
87	1
88	1
91	1
93	2
94	3
95	4
96	16
97	7
98	999
99	68
100	4
101	1
105	4
106	12
107	2
108	1
109	3
110	3
111	2
112	15
113	2
115	1
121	1
122	1
123	1
124	12
125	2
126	59
127	6
129	1
135	0
137	0
138	1
139	2
140	20
141	28
142	3
