Mass Spectrum: Tricyclo[4.2.2.2(2,5)]dodecan-3-ol
Formula: C12H20O
CAS: 68177-18-4
Molecular weight: 180
m/z	intensity
26	5
27	152
29	153
30	5
31	37
39	219
40	42
41	505
42	61
43	129
44	23
45	24
49	9
50	15
51	56
52	30
53	195
54	145
55	329
56	37
57	160
58	16
59	4
63	14
64	5
65	97
66	150
67	504
68	109
69	103
70	134
71	33
74	7
75	8
76	10
77	225
78	356
79	893
80	999
81	536
82	100
83	95
84	22
85	6
86	4
87	5
88	6
89	9
91	312
92	184
93	464
94	322
95	377
96	62
97	112
98	19
99	8
103	20
104	15
105	151
106	113
107	238
108	183
109	47
110	9
111	17
115	17
116	6
117	19
118	13
119	230
120	207
121	268
122	33
123	14
124	27
125	8
126	4
127	34
128	10
129	6
130	3
131	15
132	8
133	281
134	356
135	146
136	73
137	18
138	15
139	9
141	5
142	3
147	72
148	12
149	38
151	14
152	31
161	7
162	362
163	50
180	7
