Mass Spectrum: 8,8-Dimethylspiro(4.6)undecane-6,10-dione
Formula: C13H20O2
CAS: 68181-81-7
Molecular weight: 208
m/z	intensity
27	25
28	16
29	47
39	63
40	30
41	221
42	38
43	218
53	64
54	77
55	285
56	346
57	76
59	14
65	17
66	67
67	425
68	56
69	60
70	478
71	44
77	18
79	71
80	70
81	287
82	148
83	999
84	69
85	30
91	21
93	36
94	13
95	103
96	37
97	16
98	65
99	26
106	16
107	43
108	56
109	84
110	34
111	229
112	46
113	12
123	15
124	135
125	39
126	39
127	46
128	141
129	13
137	11
140	15
141	141
142	14
147	13
148	41
151	18
152	23
153	11
165	20
167	22
180	14
193	16
208	272
209	80
210	11
