Mass Spectrum: 2-Phenyl-3-anilino-7-methyl-4,5(3H)dihydroimidazo(4,5-b)pyridin-5-one
Formula: C19H16N4O
CAS: 68194-53-6
Molecular weight: 316
m/z	intensity
41	50
50	49
51	131
52	71
53	61
63	30
64	51
65	168
66	121
67	100
76	48
77	309
78	60
92	119
93	999
94	217
95	49
103	81
104	795
105	39
108	80
121	60
122	60
135	59
195	39
196	50
197	49
205	29
224	60
225	60
315	99
316	746
