Mass Spectrum: Cloricromen
Formula: C20H26ClNO5
CAS: 68206-94-0
Molecular weight: 395
m/z	intensity
15	1
27	5
28	7
29	26
30	45
31	5
39	2
41	3
42	18
43	9
44	2
45	2
51	2
52	1
53	1
54	1
55	1
56	16
57	8
58	55
59	13
62	1
63	2
64	1
65	2
70	3
71	3
72	2
73	1
74	1
75	2
76	1
77	4
78	1
84	7
85	5
86	999
87	60
88	2
89	3
90	1
91	2
97	1
98	1
99	1
100	1
101	2
102	3
103	4
104	1
110	1
111	1
113	1
114	2
115	15
116	3
117	2
125	2
126	1
127	4
128	6
129	2
130	1
131	2
132	1
136	1
137	1
139	1
141	1
142	1
143	2
144	2
145	2
149	2
150	1
151	1
152	1
153	1
155	1
156	1
157	1
158	1
159	1
160	2
163	1
165	1
166	3
167	1
168	1
171	1
172	1
173	2
174	1
178	1
179	1
180	1
181	1
182	1
185	1
186	1
187	1
193	1
194	3
195	3
196	1
197	1
206	3
207	3
208	2
209	1
220	2
221	1
222	1
223	3
224	1
225	1
235	1
236	3
237	1
238	1
249	2
250	1
251	1
295	1
306	1
309	3
310	1
311	1
322	1
323	5
324	1
325	2
350	1
