Mass Spectrum: 2-Butanone, 4-[3-(acetyloxy)-2,2-dichlorocyclopropyl]-, cis-
Formula: C9H12Cl2O3
CAS: 68200-76-0
Molecular weight: 238
m/z	intensity
43	999
143	120
145	50
161	330
163	110
179	120
181	80
183	20
195	160
197	120
199	40
238	36
240	25
242	5
