Mass Spectrum: Benzofuro[3,2-d]pyrimidin-4-amine, 2-methyl-N-phenyl-
Formula: C17H13N3O
CAS: 68217-90-3
Molecular weight: 275
m/z	intensity
29	15
30	4
31	2
32	30
36	0
38	2
39	159
40	16
41	27
42	184
43	71
44	15
45	6
50	17
51	177
52	41
53	10
54	13
55	24
56	7
57	12
58	1
59	0
60	7
61	3
62	47
63	56
64	32
65	150
66	34
67	8
68	2
69	9
70	4
71	7
72	0
73	6
74	4
75	44
76	189
77	999
78	91
79	15
80	2
81	3
82	3
83	6
84	6
85	7
86	12
87	33
88	153
89	81
90	44
91	29
92	40
93	45
94	4
95	4
96	2
97	6
98	2
99	1
100	2
101	43
102	160
103	274
104	102
105	20
106	10
107	0
109	3
110	3
111	2
112	1
113	18
114	252
115	98
116	33
117	38
118	45
119	12
120	2
121	0
123	4
124	7
125	6
126	8
127	23
128	95
129	77
130	48
131	7
132	10
133	0
134	0
135	0
136	2
137	52
138	78
139	2
140	28
141	6
142	19
143	95
144	11
145	16
146	4
150	3
151	26
152	26
153	12
154	5
155	28
156	85
157	27
158	13
159	5
160	0
163	1
164	2
165	8
166	5
167	11
168	64
169	10
170	2
171	7
172	0
176	3
177	19
178	15
179	14
180	9
181	5
182	8
183	148
184	20
185	3
186	1
187	0
189	0
190	11
191	2
192	0
195	0
196	0
197	0
203	4
204	7
205	77
206	34
207	7
208	0
210	1
211	0
215	0
216	1
217	1
218	4
219	12
220	3
221	2
222	0
226	0
230	0
231	1
232	0
233	5
234	18
235	4
236	0
237	0
244	2
245	5
246	7
247	13
248	1
256	0
257	0
258	1
259	4
260	4
266	0
271	2
272	9
273	28
274	697
275	427
276	98
277	12
