Mass Spectrum: Benzofuran-2-carboxamide, 3-benzoylamino-
Formula: C16H12N2O3
CAS: 68217-75-4
Molecular weight: 280
m/z	intensity
33	2
37	0
38	3
39	12
40	2
41	1
44	29
45	4
46	0
51	151
52	7
53	3
55	0
57	0
60	0
61	1
62	4
63	5
65	7
66	1
67	0
69	0
70	0
73	0
74	7
77	615
79	0
80	0
81	0
83	0
85	0
86	0
87	1
88	2
89	2
91	2
92	3
93	0
95	3
98	0
99	0
100	0
102	17
103	34
105	999
106	51
108	0
112	0
113	0
114	0
115	0
116	0
117	0
120	14
121	4
122	0
125	0
126	0
127	0
128	0
129	0
130	4
132	1
133	0
139	0
140	0
141	0
143	0
145	0
147	18
149	11
150	1
151	1
152	2
153	0
154	0
156	0
158	11
159	2
160	1
161	0
163	0
164	0
165	0
171	0
175	1
176	1
177	8
178	1
180	2
181	0
186	3
187	0
190	0
191	0
202	0
203	0
206	0
207	1
208	1
209	1
210	0
218	0
219	0
233	0
235	4
236	2
237	0
252	1
253	0
262	1
263	8
264	1
265	0
276	1
277	2
278	2
280	368
281	57
282	6
283	0
