Mass Spectrum: (1R,2S)-2-Acetyl-1-methylcyclobutaneacetic acid
Formula: C9H14O3
CAS: 68225-41-2
Molecular weight: 170
m/z	intensity
41	250
43	999
44	80
53	80
54	60
56	260
57	50
58	70
67	70
68	50
71	570
72	90
81	100
82	160
83	50
85	60
95	70
96	70
100	70
109	100
110	130
111	140
124	50
152	40
170	10
