Mass Spectrum: Bis(N-benzyldithiocarbamato)platinum(II)
Formula: C16H16N2PtS4
CAS: 68229-21-0
Molecular weight: 559
m/z	intensity
27	28
32	52
33	33
34	83
44	52
65	239
76	304
91	999
106	159
117	69
149	503
183	15
239	19
259	30
303	4
344	4
377	4
409	5
453	4
559	3
