Mass Spectrum: Pyridine-4-carboxamide, N-(2,5-dichlorophenyl)-
Formula: C12H8Cl2N2O
CAS: 68279-88-9
Molecular weight: 266
m/z	intensity
35	13
36	5
37	41
38	48
39	57
40	17
41	37
42	12
43	34
44	7
45	5
46	0
47	6
48	3
49	52
50	379
51	768
52	106
53	45
54	8
55	26
56	7
57	21
58	1
59	2
60	14
61	54
62	98
63	146
64	51
65	16
66	4
67	9
68	3
69	15
70	8
71	13
72	39
73	90
74	69
75	80
76	55
77	53
78	999
79	79
80	5
81	7
82	5
83	24
84	30
85	22
86	25
87	28
88	47
89	33
90	98
91	14
92	2
93	3
94	3
95	6
96	16
97	76
98	47
99	48
100	21
101	11
102	2
103	2
104	8
106	947
107	92
108	12
109	45
110	10
111	17
112	7
113	6
114	5
115	4
116	1
117	2
118	0
119	2
120	3
121	3
122	4
123	7
124	99
125	92
126	46
127	31
128	5
129	3
131	2
132	4
133	278
134	20
135	177
136	14
137	29
138	4
139	3
140	9
141	6
142	1
143	2
144	1
145	6
146	1
147	5
148	2
149	7
150	2
151	2
152	2
153	2
154	0
155	0
156	0
157	2
158	1
159	7
160	87
161	24
162	54
163	14
164	11
165	3
166	2
167	5
168	4
169	2
170	0
171	7
172	2
173	0
174	2
175	2
176	1
177	1
178	1
179	0
180	0
181	0
183	1
185	2
187	4
188	0
189	2
190	0
191	0
193	0
194	1
195	2
196	3
197	1
199	1
201	0
202	4
203	2
204	2
205	0
206	0
207	0
208	0
209	0
211	0
213	1
214	0
215	0
220	0
221	0
222	0
225	0
227	0
229	2
231	620
232	89
233	201
234	25
235	2
236	1
237	0
238	0
239	0
241	0
243	0
245	0
255	0
256	2
257	1
262	0
264	1
266	78
267	13
268	50
269	9
270	10
271	1
