Mass Spectrum: 2-Propanol, 1-(phenylsulfonyl)-
Formula: C9H12O3S
CAS: 68276-72-2
Molecular weight: 200
m/z	intensity
25	0
26	8
27	89
28	25
29	63
30	2
31	459
32	7
33	0
35	0
37	2
38	11
39	111
41	180
42	34
43	126
44	26
45	87
46	2
47	1
48	2
49	1
50	106
51	414
52	38
53	14
55	4
57	19
58	999
59	530
60	19
61	2
62	3
63	16
64	4
65	71
66	24
67	1
69	9
70	2
71	1
73	2
74	22
75	26
76	28
77	996
78	399
79	146
80	10
81	4
82	1
84	0
89	5
90	2
91	225
92	18
93	31
94	180
95	13
96	1
97	35
98	2
99	1
103	1
105	1
107	3
108	3
109	9
110	6
111	0
115	5
116	2
117	9
118	6
119	0
121	4
122	3
123	2
124	1
125	142
126	22
127	8
128	0
134	1
135	1
136	2
137	1
139	0
141	407
142	34
143	132
144	11
145	6
147	1
156	390
157	49
158	25
159	16
160	0
161	0
182	21
183	5
184	1
185	126
186	11
187	7
199	10
200	18
201	4
202	1
