Mass Spectrum: 4,7-Methano-1H-indene, octahydro-2-methylene-
Formula: C11H16
CAS: 68284-23-1
Molecular weight: 148
m/z	intensity
25	5
26	39
27	251
28	138
29	104
32	21
37	4
38	18
39	405
40	63
41	396
42	28
43	3
44	4
49	3
50	34
51	127
52	70
53	187
54	40
55	73
56	5
57	9
58	12
59	7
62	7
63	31
64	15
65	147
66	294
67	300
68	33
69	25
70	12
73	1
74	5
75	13
76	9
77	341
78	145
79	756
80	999
81	362
82	51
83	4
86	1
89	12
90	10
91	492
92	340
93	607
94	167
95	13
96	2
102	6
103	28
104	18
105	405
106	386
107	208
108	22
115	20
116	10
117	27
118	9
119	220
120	146
121	18
127	2
128	6
129	6
131	6
132	5
133	253
134	23
145	2
146	4
147	21
148	408
149	48
150	2
