Mass Spectrum: 4,8-Methano-s-indacene, 1,2,3,3a,4,4a,5,7a,8,8a-decahydro-2-methylene-
Formula: C14H18
CAS: 68284-26-4
Molecular weight: 186
m/z	intensity
26	8
27	34
29	23
30	2
31	10
39	48
40	18
41	131
42	7
43	5
44	19
45	4
50	4
51	17
52	15
53	50
54	13
55	32
56	2
57	2
58	27
59	4
63	3
64	4
65	68
66	999
67	227
68	16
69	6
70	3
71	2
72	1
74	2
75	7
77	206
78	195
79	343
80	103
81	47
82	5
83	0
89	4
90	7
91	478
92	248
93	117
94	41
95	24
96	2
101	1
102	4
103	48
104	74
105	412
106	138
107	36
108	11
109	1
110	0
112	0
113	1
114	1
115	54
116	45
117	145
118	633
119	468
120	507
121	60
122	3
127	9
128	37
129	77
130	83
131	217
132	54
133	12
134	70
135	6
141	9
142	8
143	71
144	44
145	49
146	6
147	2
149	0
152	1
153	2
154	2
155	4
156	1
157	33
158	21
159	4
165	1
167	1
169	1
171	41
172	7
173	2
184	0
185	7
186	346
187	52
188	11
