Mass Spectrum: N-Propyl-benzenesulfinylamide
Formula: C9H13NOS
CAS: 6829-90-9
Molecular weight: 183
m/z	intensity
43	218
58	40
77	59
78	231
106	269
107	19
109	20
125	999
126	158
135	492
167	40
183	229
