Mass Spectrum: Propanedioic acid, amino-, diethyl ester
Formula: C7H13NO4
CAS: 6829-40-9
Molecular weight: 175
m/z	intensity
25	31
27	246
28	261
29	343
30	147
31	87
39	15
40	5
41	51
42	42
43	179
44	45
45	175
46	249
47	65
48	4
51	4
52	4
54	28
55	57
56	175
57	192
58	46
59	11
60	26
61	12
64	5
65	5
66	3
67	16
68	9
69	26
70	12
71	23
72	26
73	43
74	343
75	54
76	9
77	6
79	16
80	5
81	15
82	12
83	19
84	92
85	17
86	11
87	10
88	13
89	4
91	7
93	9
95	21
96	11
97	18
98	5
99	8
100	107
101	48
102	999
103	204
104	23
105	17
106	4
107	5
108	4
109	8
111	10
112	5
113	5
115	6
116	10
119	6
121	5
123	11
125	4
126	6
128	5
129	9
130	135
131	72
132	9
133	11
142	11
144	4
145	4
156	6
157	7
175	31
176	11
