Mass Spectrum: Propanedioic acid, (hydroxyimino)-, diethyl ester
Formula: C7H11NO5
CAS: 6829-41-0
Molecular weight: 189
m/z	intensity
27	243
28	468
29	999
30	72
31	90
32	72
41	54
42	54
43	126
44	271
45	144
54	162
59	45
71	135
72	136
73	36
74	38
84	46
86	27
87	72
88	42
101	36
102	39
115	684
116	108
117	7
129	108
130	35
133	576
134	36
143	288
144	144
145	13
147	63
161	324
162	36
163	4
189	72
190	7
191	1
