Mass Spectrum: 2-Chloro-1-buten-3-one
Formula: C4H5ClO
CAS: 683-70-5
Molecular weight: 104
m/z	intensity
42	150
43	999
53	90
54	60
61	390
63	130
89	190
91	60
104	760
106	260
