Mass Spectrum: Arsine, cyanodimethyl-
Formula: C3H6AsN
CAS: 683-45-4
Molecular weight: 131
m/z	intensity
27	521
28	63
29	8
42	403
43	21
75	121
76	81
77	83
78	9
88	109
89	913
90	999
91	25
101	163
102	63
103	12
114	103
115	71
116	723
117	25
131	803
132	41
133	1
