Mass Spectrum: Acrolein, 2-chloro-
Formula: C3H3ClO
CAS: 683-51-2
Molecular weight: 90
m/z	intensity
53	80
54	50
60	60
61	330
62	370
63	120
64	130
89	90
90	999
91	60
92	360
