Mass Spectrum: O-Benzyl-N-Carbobenzyloxy-aspartylglycine ethyl ester
Formula: C23H26N2O7
CAS: 68319-54-0
Molecular weight: 442
m/z	intensity
41	13
42	6
43	40
44	8
45	2
46	0
47	1
49	6
50	4
51	16
52	4
53	3
54	1
55	12
56	18
57	3
58	2
59	1
60	2
61	1
62	1
63	9
64	2
65	68
66	3
67	0
68	1
69	2
70	10
71	3
72	1
73	0
74	27
75	1
76	1
77	26
78	3
79	32
80	2
81	0
82	1
83	2
84	8
85	4
86	5
87	5
88	4
89	16
91	999
92	122
93	4
95	1
96	2
97	1
98	1
99	2
100	4
101	0
102	17
103	1
104	6
105	5
106	3
107	56
108	61
109	5
110	10
111	6
112	2
113	1
114	3
115	0
116	1
117	2
118	3
119	1
120	7
121	0
125	2
126	1
127	2
129	1
130	2
131	1
132	5
133	1
134	0
135	1
138	2
139	4
143	3
145	1
146	0
153	8
154	2
155	2
157	0
158	2
159	1
160	4
161	1
162	1
165	1
167	1
169	0
171	25
172	3
173	1
176	1
177	1
178	25
179	4
180	7
181	35
182	4
184	1
185	5
194	1
197	0
199	8
200	1
201	1
204	0
210	0
220	3
221	1
222	51
223	6
224	1
225	0
227	18
228	1
245	133
246	13
247	2
252	13
253	2
260	0
261	1
263	1
268	254
269	49
270	5
307	2
308	1
311	1
312	223
313	54
314	8
315	1
334	13
335	6
336	1
340	1
369	1
397	22
398	5
399	1
442	49
443	18
444	3
445	0
