Mass Spectrum: Hexanoic acid, 3,7-dimethyl-2,6-octadienyl ester, (Z)-
Formula: C16H28O2
CAS: 68310-59-8
Molecular weight: 252
m/z	intensity
27	49
29	68
39	85
40	25
41	564
42	44
43	378
51	16
52	10
53	88
54	14
55	105
56	16
60	10
65	27
66	11
67	203
68	581
69	999
70	66
71	197
72	15
77	40
79	64
80	329
81	158
82	24
83	22
84	30
91	56
92	106
93	581
94	100
95	53
99	238
100	20
105	39
107	103
108	32
111	12
121	290
122	31
123	31
135	15
136	130
137	26
139	13
154	17
183	6
219	3
