Mass Spectrum: (-)-Aristolene
Formula: C15H24
CAS: 6831-16-9
Molecular weight: 204
m/z	intensity
25	4
27	90
28	19
29	89
30	1
31	8
37	2
38	3
39	98
40	16
41	321
42	27
43	188
44	12
45	3
50	6
51	34
52	11
53	68
54	7
55	163
56	29
57	35
58	5
59	4
62	1
63	10
64	21
65	65
66	13
67	84
68	9
69	96
70	7
71	13
72	4
73	1
74	4
75	3
76	5
77	119
78	38
79	151
80	23
81	93
82	19
83	24
84	4
85	3
86	1
87	2
89	6
90	2
91	407
92	60
93	191
94	36
95	90
96	13
97	7
98	1
100	0
101	2
102	6
103	26
104	16
105	999
106	160
107	200
108	45
109	48
110	7
111	1
115	42
116	18
117	73
118	19
119	297
120	54
121	72
122	56
123	13
124	2
127	6
128	21
129	23
130	13
131	46
132	15
133	262
134	60
135	40
136	19
137	4
141	5
142	4
143	8
144	5
145	54
146	13
147	306
148	175
149	50
150	8
151	1
155	1
156	1
158	1
159	20
160	27
161	417
162	85
163	16
164	1
172	0
173	4
174	2
175	47
176	7
177	1
185	2
187	6
188	3
189	231
190	35
191	5
202	8
203	14
204	240
205	39
206	4
207	1
