Mass Spectrum: 4-Cycloocten-1-one, 8-butyl-, oxime, (Z,Z)-
Formula: C12H21NO
CAS: 68344-29-6
Molecular weight: 195
m/z	intensity
41	999
55	780
67	590
69	340
81	400
85	270
94	230
98	310
110	180
111	210
122	200
138	220
139	230
152	170
178	370
195	70
