Mass Spectrum: Furan, 2-(2-nitroethenyl)-5-(2-pyrimidylthio)-
Formula: C10H7N3O3S
CAS: 68345-55-1
Molecular weight: 249
m/z	intensity
39	496
40	332
43	37
44	463
45	340
51	224
52	93
53	887
54	232
57	25
63	982
64	389
68	124
69	483
70	999
71	346
79	582
80	232
81	0
95	374
96	441
97	15
98	180
105	38
112	13
113	8
123	299
124	107
137	611
138	170
152	7
161	701
162	174
249	231
250	68
