Mass Spectrum: Hydrazinecarboxamide, 2-(2,6-cyclooctadien-1-ylidene)-
Formula: C9H13N3O
CAS: 68344-44-5
Molecular weight: 179
m/z	intensity
25	1
26	58
27	535
28	79
29	102
30	98
31	40
36	1
37	31
38	107
39	999
40	99
41	501
42	112
43	250
44	962
45	19
46	2
47	0
49	7
50	159
51	377
52	213
53	378
54	370
55	673
56	231
57	52
58	27
59	6
60	19
61	74
62	37
63	113
64	62
65	438
66	356
67	208
68	75
69	115
70	68
71	14
72	2
73	9
74	27
75	21
76	25
77	579
78	369
79	504
80	209
81	222
82	206
83	51
84	12
85	2
86	4
87	7
88	7
89	21
90	15
91	483
92	185
93	122
94	98
95	296
96	33
97	3
98	2
99	41
100	9
101	2
102	13
103	77
104	112
105	223
106	116
107	73
108	626
109	95
110	10
111	2
112	7
113	38
114	2
115	1
116	7
117	44
118	241
119	130
120	196
121	88
122	7
123	1
124	1
125	188
126	11
128	1
131	0
132	1
133	9
134	21
135	104
136	109
137	15
138	39
139	3
142	0
143	0
147	4
148	1
150	6
151	332
152	30
153	3
154	1
156	0
161	3
162	26
163	4
164	2
165	0
178	4
179	84
180	22
181	1
