Mass Spectrum: Spiro[2.5]octane-1,1-dicarbonitrile
Formula: C10H12N2
CAS: 68352-24-9
Molecular weight: 160
m/z	intensity
25	7
26	145
27	999
28	364
29	458
30	57
31	0
32	0
37	45
38	138
39	833
40	371
41	539
42	201
43	269
44	18
45	6
46	8
47	1
49	10
50	166
51	357
52	299
53	497
54	495
55	386
56	197
57	108
58	4
59	1
61	9
62	42
63	153
64	170
65	287
66	222
67	767
68	406
69	152
70	11
74	10
75	48
76	100
77	332
78	174
79	504
80	434
81	474
82	599
83	262
84	8
87	4
88	18
89	35
90	69
91	379
92	456
93	262
94	97
95	81
96	12
97	1
99	1
100	2
101	5
102	26
103	39
104	114
105	168
106	425
107	277
108	44
109	4
114	2
115	21
116	58
117	60
118	174
119	158
120	100
121	7
127	1
128	13
129	6
130	15
131	134
132	327
133	168
134	23
136	1
141	1
142	26
143	58
144	23
145	160
146	14
155	1
157	3
158	4
159	252
160	232
161	39
162	22
163	3
