Mass Spectrum: Deoxyfructosazine, heptakis(trimethylsilyl)- deriv.
Formula: C33H76N2O7Si7
CAS: 68361-17-1
Molecular weight: 808
m/z	intensity
14	101
16	6
26	12
27	13
28	5
32	0
45	27
59	21
72	13
73	999
74	92
75	86
89	12
101	13
103	637
104	65
105	28
117	62
119	13
129	21
131	17
133	48
147	253
148	49
149	38
179	26
189	39
190	12
191	36
193	16
194	15
195	20
204	44
205	82
206	21
207	13
208	5
209	1
217	427
218	90
219	48
221	26
222	4
223	16
267	29
277	65
278	21
279	15
281	9
282	3
295	11
296	37
297	20
306	19
307	529
308	158
309	97
310	24
321	34
322	16
341	14
355	4
356	12
369	5
370	13
411	34
412	18
429	1
502	70
503	36
504	23
515	14
574	109
575	61
576	36
577	15
589	13
603	28
604	19
605	13
629	17
630	13
705	20
718	13
793	69
795	30
796	15
808	80
810	36
811	17
