Mass Spectrum: 4-Octanone, 5-hydroxy-2,7-dimethyl-
Formula: C10H20O2
CAS: 6838-51-3
Molecular weight: 172
m/z	intensity
30	12
31	27
37	1
38	3
39	72
40	12
41	383
42	35
43	591
44	55
45	444
46	11
47	1
50	1
51	2
52	1
53	12
54	2
55	36
56	13
57	564
58	35
59	4
60	0
61	0
63	0
65	1
66	0
67	6
68	8
69	999
70	59
71	54
72	2
73	38
74	37
75	1
77	1
79	2
81	5
82	1
83	11
84	6
85	358
86	104
87	281
88	16
89	1
91	1
93	1
94	0
95	2
96	0
97	13
98	2
99	1
100	1
101	1
108	0
109	0
110	0
111	2
112	1
113	0
115	4
116	97
117	8
118	0
127	1
129	0
136	0
139	1
143	0
170	0
