Mass Spectrum: .alpha.-D-Arabino-Hexopyranoside, methyl 2-deoxy-4,6-O-(phenylmethylene)-, acetate
Formula: C16H20O6
CAS: 6838-11-5
Molecular weight: 308
m/z	intensity
43	970
77	230
79	100
91	350
99	999
105	430
106	61
107	55
141	8
149	110
154	2
159	510
172	12
185	1
202	2
231	8
248	290
265	3
276	0
277	3
307	115
308	190
309	33
