Mass Spectrum: .alpha.-L-Idopyranuronic acid, 5TMS derivative
Formula: C21H50O7Si5
CAS: 68398-77-6
Molecular weight: 554
m/z	intensity
73	999
75	260
77	50
93	50
103	30
117	20
129	40
131	30
133	50
143	60
147	410
189	60
191	90
204	760
217	440
230	20
233	20
245	20
257	20
291	10
292	70
305	100
319	10
331	10
333	20
335	20
347	10
359	30
449	30
464	10
539	6
