Mass Spectrum: 2-Propanone, 1,1,1,3,3,3-hexafluoro-
Formula: C3F6O
CAS: 684-16-2
Molecular weight: 166
m/z	intensity
12	7
28	67
29	1
31	110
32	7
43	2
47	8
50	176
57	4
69	999
70	13
78	36
93	6
95	3
97	536
98	15
100	17
119	37
147	268
148	8
166	41
