Mass Spectrum: Phosphine oxide, bis(1,1-dimethylethyl)-
Formula: C8H19OP
CAS: 684-19-5
Molecular weight: 162
m/z	intensity
29	107
39	10
41	143
55	25
56	51
57	999
58	71
62	41
105	5
106	200
107	35
147	30
162	102
163	51
