Mass Spectrum: Urea, N-methyl-N-nitroso-
Formula: C2H5N3O2
CAS: 684-93-5
Molecular weight: 103
m/z	intensity
26	11
27	47
28	428
29	61
30	333
42	95
43	254
44	404
55	11
56	23
57	30
59	23
60	999
61	20
103	76
