Mass Spectrum: N-Benzyl-N-phenylacetamide
Formula: C15H15NO
CAS: 6840-29-5
Molecular weight: 225
m/z	intensity
15	4
27	3
28	2
37	1
38	4
39	27
40	2
41	7
42	4
43	88
44	2
50	12
51	58
52	10
53	2
54	1
61	1
62	5
63	25
64	13
65	121
66	8
74	4
75	5
76	9
77	199
78	31
79	15
80	2
86	1
87	1
88	1
89	28
91	999
92	85
93	11
94	1
101	1
102	2
104	114
105	25
106	133
107	13
108	1
113	1
114	1
115	6
116	2
117	2
118	15
119	20
120	3
121	2
126	2
127	5
128	5
129	2
130	1
131	1
132	8
133	2
134	4
139	2
140	2
141	2
146	1
147	6
148	3
150	2
151	6
152	22
153	10
154	8
155	3
156	1
165	17
166	15
167	70
168	13
169	1
179	2
180	61
181	18
182	662
183	717
184	99
185	6
208	1
209	1
210	3
224	25
225	831
226	140
227	13
228	1
