Mass Spectrum: 4-Heptenoic acid, methyl ester
Formula: C8H14O2
CAS: 6843-93-2
Molecular weight: 142
m/z	intensity
27	393
29	237
30	5
31	52
33	11
34	5
37	7
38	24
39	326
40	66
41	986
42	109
43	629
44	11
45	37
48	3
49	1
50	17
51	35
52	17
53	164
54	69
55	403
56	41
57	33
58	15
59	261
60	7
61	4
62	3
63	8
64	2
65	29
66	18
67	327
68	465
69	446
70	21
71	67
72	7
73	3
74	999
75	48
76	4
77	14
78	3
79	30
80	15
81	92
82	228
83	162
84	11
85	90
86	5
87	45
88	9
91	1
93	2
94	1
95	16
96	2
97	4
98	4
99	6
100	7
101	3
105	1
108	1
109	4
110	235
111	127
112	6
113	111
114	10
115	2
125	1
126	3
128	1
133	2
135	1
140	2
141	1
142	101
143	8
