Mass Spectrum: 1,3-Dithiane-5,5-dithiol, 2-(1,1-dimethylethyl)-
Formula: C8H16S4
CAS: 68449-92-3
Molecular weight: 240
m/z	intensity
41	999
45	600
47	147
53	267
55	127
57	580
59	800
69	347
71	130
74	347
87	200
102	600
103	93
111	53
116	133
117	213
149	535
150	67
151	93
206	173
