Mass Spectrum: 2-Propenoic acid, 2-methyl-, 4-(1-methyl-1-phenylethyl)phenyl ester
Formula: C19H20O2
CAS: 68443-35-6
Molecular weight: 280
m/z	intensity
27	2
37	1
38	4
39	69
40	12
41	346
42	12
43	2
50	4
51	18
52	4
53	6
55	6
62	2
63	14
64	4
65	23
66	3
67	1
69	999
70	51
71	3
74	2
75	5
76	9
77	60
78	16
79	16
80	1
81	1
82	3
83	4
87	2
88	2
89	17
90	6
91	90
92	8
93	1
94	1
95	3
98	1
101	4
102	13
103	105
104	12
105	12
106	3
107	9
109	1
113	2
114	2
115	52
116	7
117	6
118	4
119	71
120	7
126	6
127	13
128	27
129	9
131	1
133	3
134	2
135	4
139	15
140	3
141	32
142	10
143	3
150	3
151	18
152	105
153	107
154	19
155	9
156	1
157	1
161	1
162	7
163	6
164	8
165	87
166	28
167	63
168	32
169	6
170	1
171	5
176	5
177	7
178	32
179	18
180	5
181	58
182	17
183	11
184	1
191	1
193	4
194	3
195	17
196	21
197	53
198	8
203	17
204	3
205	1
211	6
212	4
221	2
237	2
265	890
266	194
267	21
268	1
280	472
281	100
282	12
283	1
