Mass Spectrum: O-Benzoyl-4-chlorobenzamidoxime
Formula: C14H11ClN2O2
CAS: 68451-72-9
Molecular weight: 274
m/z	intensity
51	177
77	577
102	171
105	999
111	59
113	19
122	209
125	59
127	20
137	539
139	169
152	99
153	50
154	29
155	20
169	29
171	10
223	9
256	29
268	10
274	269
276	89
