Mass Spectrum: 5.alpha.-Pregnan-3-one, oxime
Formula: C21H35NO
CAS: 6845-59-6
Molecular weight: 317
m/z	intensity
41	999
42	160
43	448
44	48
45	101
46	13
50	21
51	48
52	40
53	266
54	128
55	959
56	165
57	261
58	26
59	26
60	56
61	5
63	13
65	96
66	56
67	586
68	186
69	453
70	173
71	106
72	13
73	93
74	13
77	213
78	61
79	453
80	133
81	645
82	120
83	160
84	53
85	53
86	58
87	21
91	320
92	80
93	360
94	128
95	400
96	112
97	106
98	56
99	32
100	13
101	13
103	24
104	26
105	213
106	98
107	253
108	133
109	240
110	80
111	53
112	986
113	85
114	13
115	40
116	26
117	53
118	53
119	133
120	74
121	200
122	106
123	181
124	80
125	80
126	53
127	13
128	21
129	48
130	26
131	66
132	32
133	85
134	66
135	85
136	48
137	53
138	66
139	213
140	53
141	13
142	16
143	26
144	26
145	53
146	32
147	66
148	40
149	53
150	26
151	32
152	53
153	16
155	16
157	26
158	13
159	48
160	26
161	53
162	40
163	53
164	40
165	29
166	8
169	16
170	16
171	26
172	26
173	26
174	32
175	40
176	56
177	48
178	173
179	58
180	26
185	18
186	18
187	32
188	26
189	26
190	26
191	29
192	29
193	10
194	21
199	13
200	13
201	13
202	21
203	58
204	26
205	26
206	26
207	34
213	16
214	13
215	21
216	10
217	13
218	21
219	32
220	13
227	13
228	48
229	26
230	101
231	56
232	109
233	32
234	13
243	8
244	101
245	48
246	474
247	368
248	128
249	26
256	26
257	16
258	13
260	21
261	106
262	26
270	18
272	16
273	16
274	16
275	16
283	13
284	40
285	13
286	26
287	13
288	26
289	21
298	21
299	18
300	165
301	80
302	213
303	53
304	13
316	21
317	693
318	168
319	26
