Mass Spectrum: 1,4-Dioxane, 2,3-bis(isopropyloxy)-
Formula: C10H20O4
CAS: 68470-76-8
Molecular weight: 204
m/z	intensity
25	0
26	9
27	179
28	141
29	90
30	36
31	50
33	1
35	0
37	1
38	2
39	54
40	10
41	175
42	130
43	672
44	35
45	533
46	13
47	58
48	0
51	0
52	1
53	0
54	0
55	11
56	8
57	19
58	24
59	31
60	79
61	10
62	0
63	2
69	0
70	39
71	12
72	3
73	999
74	617
75	30
76	3
83	3
85	2
86	29
87	25
88	4
89	39
90	2
91	2
101	8
102	16
103	183
104	8
105	1
115	0
116	108
117	7
118	0
119	69
120	3
121	0
127	1
144	1
145	63
146	4
147	0
161	7
162	0
