Mass Spectrum: 3,3,5-Trichloro-2,4-dithiahexane 2,2,4,4-tetroxide
Formula: C4H7Cl3O4S2
CAS: 68483-82-9
Molecular weight: 288
m/z	intensity
43	58
44	36
45	51
46	14
47	66
48	102
49	29
50	14
63	999
64	279
65	294
79	88
80	29
82	73
83	132
84	44
85	73
111	29
130	102
132	73
134	14
161	897
163	598
165	99
