Mass Spectrum: 2-Buten-1-ol, 3-methyl-, formate
Formula: C6H10O2
CAS: 68480-28-4
Molecular weight: 114
m/z	intensity
41	488
42	58
43	113
44	25
45	21
46	2
47	6
48	2
49	22
50	37
51	58
52	29
53	290
54	37
55	53
56	12
57	26
58	5
59	4
60	1
61	4
62	6
63	9
64	2
65	39
66	28
67	768
68	999
69	514
70	41
71	583
72	31
73	3
74	0
75	0
76	0
82	2
83	24
84	29
85	266
86	36
87	1
88	3
90	0
91	1
92	0
97	2
98	0
99	15
100	2
101	0
112	1
113	6
114	77
115	7
116	1
117	1
