Mass Spectrum: Magnesium, bis(acetylacetonate)
Formula: C10H14MgO4
CAS: 68488-07-3
Molecular weight: 222
m/z	intensity
28	10
29	7
31	3
37	2
38	5
39	103
40	49
41	26
42	10
43	123
44	10
45	5
46	1
47	4
48	1
49	5
50	11
51	28
52	10
53	5
54	7
55	5
57	2
58	4
60	2
61	3
62	10
63	17
64	4
65	23
66	2
67	10
68	2
69	3
71	1
72	2
73	4
74	17
75	10
76	17
77	25
78	42
79	6
80	5
81	26
82	13
83	19
84	3
85	27
86	2
87	4
88	11
89	34
90	3
91	164
92	40
93	9
94	21
95	9
96	28
97	4
99	1
100	22
101	25
102	15
103	18
104	10
105	41
106	7
107	49
108	41
109	14
110	5
111	6
112	1
113	1
115	40
116	6
117	50
118	6
119	4
120	1
122	20
123	999
124	169
125	147
126	15
127	17
128	51
129	30
130	3
131	2
133	2
135	2
136	3
137	1
138	1
139	3
141	4
142	1
149	2
150	4
151	5
152	13
153	3
154	2
155	8
157	8
158	4
159	3
160	1
161	2
163	2
164	2
165	20
166	3
167	3
168	1
176	3
177	4
178	19
179	13
180	110
181	24
182	17
183	1
187	1
188	1
189	17
190	22
191	55
192	10
193	16
194	6
195	2
200	5
201	5
202	34
203	38
204	27
205	67
206	139
207	614
208	138
209	98
210	11
211	1
215	2
216	1
217	2
218	1
221	1
222	545
223	122
224	81
225	11
226	1
227	1
