Mass Spectrum: cis-Hexenyl octyne carbonate
Formula: C15H24O2
CAS: 68480-29-5
Molecular weight: 236
m/z	intensity
15	2
16	1
17	2
18	9
26	5
27	61
28	14
29	63
30	1
31	1
37	2
38	9
39	96
40	17
41	245
42	34
43	118
44	50
45	1
49	1
50	9
51	22
52	16
53	66
54	67
55	188
56	16
57	8
58	2
62	2
63	5
64	1
65	28
66	49
67	704
68	60
69	71
70	11
71	6
73	1
74	1
75	1
77	25
78	6
79	62
80	13
81	145
82	999
83	91
84	6
85	2
86	1
91	13
92	2
93	14
94	6
95	29
96	3
97	3
98	1
99	1
103	1
105	4
106	1
107	11
108	5
109	8
110	1
111	2
112	1
113	1
115	1
117	1
119	2
121	4
122	1
123	2
124	1
125	2
133	1
135	2
136	2
137	168
138	17
139	2
140	1
151	2
153	1
155	29
156	3
165	1
166	1
179	2
