Mass Spectrum: 5-Chloro-2,4-dithiahexane 2,2-dioxide
Formula: C4H9ClO2S2
CAS: 68483-77-2
Molecular weight: 188
m/z	intensity
36	805
38	268
43	328
45	999
46	492
47	835
59	194
60	194
61	432
63	611
65	223
73	776
75	149
79	89
81	208
91	358
109	940
111	313
126	74
133	111
152	104
153	74
188	89
190	29
