Mass Spectrum: 2-Aminocyclohexanol
Formula: C6H13NO
CAS: 6850-38-0
Molecular weight: 115
m/z	intensity
14	1
15	9
16	1
17	2
18	8
26	6
27	49
28	89
29	40
30	218
31	19
37	1
38	4
39	48
40	9
41	100
42	64
43	348
44	69
45	27
46	7
50	4
51	7
52	5
53	14
54	26
55	30
56	999
57	89
58	7
59	62
60	3
63	1
65	4
66	3
67	23
68	22
69	50
70	90
71	9
72	181
73	19
74	2
77	8
78	3
79	18
80	10
81	9
82	20
83	9
84	8
85	7
86	44
87	6
93	1
94	2
95	2
96	14
97	13
98	19
99	1
111	4
112	1
113	1
114	11
115	367
116	27
117	1
