Mass Spectrum: 1,4-Benzenedicarboxamide, N,N'-bis(2-hydroxy-1-methyl-2-phenylethyl)-
Formula: C26H28N2O4
CAS: 68516-51-8
Molecular weight: 432
m/z	intensity
41	7
42	39
44	999
45	19
46	1
49	0
50	13
51	35
52	10
53	9
54	0
55	4
56	2
57	3
58	1
59	1
60	1
61	0
62	2
63	7
64	1
65	5
66	1
67	0
69	0
70	1
71	0
72	1
73	3
74	3
75	2
76	10
77	82
78	20
79	69
80	2
84	0
86	1
87	4
89	4
90	3
91	10
92	1
93	0
103	6
104	28
105	36
106	9
107	31
108	2
115	4
116	0
117	10
118	7
119	2
120	1
121	1
122	1
129	0
130	2
131	0
132	23
133	8
134	37
135	1
136	0
144	0
146	2
147	2
148	4
149	5
150	1
151	0
152	31
153	2
158	0
160	1
162	0
163	0
165	0
174	3
175	2
176	15
177	2
178	0
189	0
191	2
192	2
193	2
194	0
203	0
204	0
209	0
217	0
218	0
219	1
220	2
232	0
235	0
237	3
238	2
240	0
250	1
253	0
254	0
255	4
256	0
260	1
261	4
262	0
264	1
265	0
274	0
280	1
281	0
282	41
283	23
284	4
285	0
293	0
307	0
308	1
309	0
310	0
325	11
326	18
327	5
342	0
368	0
415	5
416	2
432	2
433	0
