Mass Spectrum: Tetrahydroionyl acetate
Formula: C15H28O2
CAS: 68555-59-9
Molecular weight: 240
m/z	intensity
14	2
15	15
19	1
26	2
27	49
28	13
29	101
30	2
31	3
38	2
39	105
40	24
41	554
42	94
43	999
44	27
45	36
46	1
50	2
51	12
52	7
53	115
54	47
55	758
56	229
57	160
58	19
59	6
60	2
61	51
62	2
63	2
64	1
65	34
66	14
67	347
68	375
69	817
70	110
71	37
72	4
73	2
77	44
78	8
79	90
80	57
81	572
82	570
83	287
84	41
85	15
86	2
87	32
88	2
89	1
90	1
91	36
92	6
93	53
94	53
95	834
96	301
97	97
98	12
99	13
100	2
101	2
102	1
103	2
105	7
106	2
107	23
108	9
109	744
110	145
111	38
112	8
113	2
115	7
116	1
117	1
119	1
120	1
121	8
122	1
123	569
124	421
125	181
126	16
127	1
128	1
135	2
136	5
137	91
138	359
139	42
140	3
149	3
151	10
152	3
163	2
165	429
166	58
167	4
179	3
180	74
181	11
182	1
183	1
197	1
