Mass Spectrum: Dimethyl 2-octylundecane-1,11-dioate
Formula: C21H40O4
CAS: 6858-79-3
Molecular weight: 356
m/z	intensity
29	149
31	19
39	40
40	55
41	413
42	59
43	395
44	61
45	49
53	28
54	479
55	658
56	133
57	373
58	26
59	153
60	9
61	9
65	13
66	5
67	180
68	61
69	434
70	59
71	119
72	13
73	42
74	289
75	28
77	9
78	9
79	45
80	26
81	194
82	59
83	289
84	378
85	98
86	13
87	719
88	55
89	5
91	19
92	9
93	40
94	41
95	159
96	89
97	266
98	999
99	98
100	21
101	125
102	17
105	13
106	7
107	35
108	27
109	96
110	59
111	149
112	229
113	49
114	13
115	65
116	19
119	13
120	13
121	56
122	14
123	59
124	45
125	70
126	28
127	23
128	41
129	119
130	21
133	19
134	19
135	45
136	21
137	42
138	93
139	107
140	31
141	26
142	12
143	289
144	47
145	9
147	13
148	12
149	27
150	14
151	28
152	145
153	40
154	124
155	31
156	27
157	79
158	40
161	12
162	19
163	13
164	9
165	26
166	41
167	23
168	26
169	13
170	75
171	105
172	54
173	9
175	9
177	7
179	17
180	87
181	23
182	13
183	9
184	27
185	35
186	579
187	73
188	9
189	9
191	5
193	17
194	21
195	13
196	28
197	12
198	40
199	35
200	55
201	9
202	9
207	19
208	13
209	9
210	54
211	13
212	313
213	49
214	13
221	13
222	27
223	12
224	12
225	9
226	13
227	9
228	5
230	13
235	9
236	12
237	7
239	13
241	9
244	129
245	23
247	17
249	7
251	19
252	7
253	7
254	17
263	9
264	40
265	33
266	9
268	13
269	9
271	12
282	9
283	54
284	9
291	7
292	19
293	5
296	9
297	125
298	27
324	14
325	23
326	5
327	5
