Mass Spectrum: 7,7-Dimethoxy-5-methylenebicyclo[2.2.1]hept-2-ene
Formula: C10H14O2
CAS: 68582-38-7
Molecular weight: 166
m/z	intensity
25	1
26	15
27	83
28	47
29	65
30	5
31	53
32	8
33	4
34	0
37	4
38	24
39	182
40	28
41	87
42	7
43	26
44	3
45	68
46	10
47	175
48	3
49	2
50	27
51	82
52	55
53	45
54	6
55	35
56	2
57	9
58	8
59	287
60	9
61	4
62	12
63	49
64	15
65	179
66	26
67	17
68	7
69	6
70	1
71	2
73	1
74	8
75	357
76	16
77	108
78	35
79	130
80	19
81	9
82	2
83	3
84	1
85	1
86	1
87	1
88	16
89	22
90	23
91	999
92	252
93	45
94	9
95	32
96	4
97	2
98	1
99	1
100	0
101	5
102	4
103	55
104	12
105	175
106	28
107	73
108	17
109	36
110	4
111	2
112	1
113	1
115	2
116	0
117	2
118	33
119	214
120	40
121	18
122	2
123	14
124	1
125	1
127	3
131	0
132	0
133	10
134	275
135	202
136	18
137	4
138	5
139	1
141	3
142	0
149	2
150	3
151	151
152	15
153	2
164	1
165	78
166	332
167	39
168	4
