Mass Spectrum: 2-Propenoic acid, 2-methyl-, 2-[[2,3,3a,4,7,7a(or 3a,4,5,6,7,7a)-hexahydro-4,7-methano-1H-indenyl]oxy]ethyl ester
Formula: C16H22O3
CAS: 68586-19-6
Molecular weight: 262
m/z	intensity
15	46
27	137
28	82
29	61
30	4
31	15
39	437
41	995
42	49
43	44
44	13
45	47
50	9
51	41
52	25
53	58
54	34
55	53
57	8
59	8
63	15
65	136
66	424
67	751
69	611
70	33
73	14
77	160
78	127
79	151
80	23
81	11
82	23
83	18
86	11
87	9
89	7
91	302
92	51
93	21
99	15
103	44
104	150
105	106
106	34
107	8
108	6
113	999
114	185
115	50
117	455
118	50
119	15
120	10
121	9
127	7
128	7
129	12
130	25
131	116
132	200
133	453
134	55
148	75
149	77
150	8
161	15
174	5
176	42
177	5
194	7
262	4
