Mass Spectrum: 3,4-Dihydroxybenzyl alcohol,tris(trimethylsilyl)-
Formula: C16H32O3Si3
CAS: 68595-79-9
Molecular weight: 356
m/z	intensity
14	11
15	34
16	7
26	9
27	9
28	37
29	8
32	8
39	8
41	12
42	7
43	32
44	31
45	169
46	11
47	12
51	7
52	7
55	9
57	12
58	9
59	40
61	7
71	8
72	14
73	999
74	86
75	84
77	13
79	9
83	7
89	8
91	16
103	24
104	9
105	12
115	9
117	9
119	12
131	17
133	27
135	9
147	145
148	25
149	42
151	9
161	9
163	12
177	18
179	398
180	62
181	21
191	14
193	27
194	8
207	12
209	23
210	5
223	7
237	12
251	11
253	38
254	9
267	503
268	127
269	50
270	9
281	8
312	4
341	20
342	7
356	263
357	90
358	41
359	10
