Mass Spectrum: 3-Piperidinol
Formula: C5H11NO
CAS: 6859-99-0
Molecular weight: 101
m/z	intensity
14	5
15	34
16	1
18	2
26	12
27	72
28	159
29	158
30	570
31	24
32	5
36	3
37	3
38	6
39	49
40	9
41	78
42	104
43	107
44	999
45	35
46	3
49	1
50	3
51	5
52	5
53	12
54	24
55	80
56	171
57	320
58	19
59	13
60	4
65	3
66	1
67	9
68	21
69	6
70	41
71	13
72	55
73	40
74	2
79	1
80	9
81	2
82	49
83	21
84	20
85	2
86	2
97	1
98	1
99	2
100	52
101	221
102	13
103	1
