Mass Spectrum: Octopamine, 3TMS derivative
Formula: C17H35NO2Si3
CAS: 68595-60-8
Molecular weight: 369
m/z	intensity
15	1
27	1
29	3
30	8
31	2
39	1
42	2
43	15
44	15
45	100
46	10
47	9
51	2
52	1
53	2
55	2
56	3
57	5
58	12
59	30
60	4
61	5
63	3
64	1
65	3
66	2
67	1
68	1
69	2
70	3
71	3
72	16
73	919
74	96
75	79
76	5
77	9
78	1
79	2
81	1
82	1
83	3
84	2
85	2
86	10
87	7
88	4
89	7
90	4
91	19
92	2
93	2
95	4
96	1
98	1
99	1
100	5
102	999
103	102
104	40
105	9
106	1
107	2
108	1
109	2
111	1
113	1
114	1
115	7
116	12
117	10
118	7
119	9
120	2
121	3
122	1
123	2
124	1
126	1
129	1
130	7
131	12
132	8
133	24
134	7
135	15
136	2
137	2
143	1
144	1
145	4
146	34
147	116
148	22
149	20
150	4
151	16
152	4
153	1
158	1
159	2
160	5
161	8
162	6
163	22
164	3
165	4
166	1
167	1
170	1
172	1
173	1
174	3
175	3
176	4
177	19
178	6
179	22
180	5
181	2
188	8
189	1
190	6
191	4
192	14
193	54
194	10
195	5
196	1
205	1
206	3
207	6
208	2
209	2
210	1
219	2
221	2
223	3
224	1
225	1
232	1
234	1
235	1
236	1
237	14
238	4
239	2
248	3
249	2
250	1
251	26
252	10
253	4
254	1
262	1
264	3
265	17
267	951
268	224
269	88
270	15
271	1
278	2
279	6
280	7
281	2
282	2
283	1
354	43
355	14
356	6
357	1
367	1
368	1
