Mass Spectrum: .alpha.-Methyl-L-tyrosine,  3TMS derivative
Formula: C19H37NO3Si3
CAS: 68595-74-4
Molecular weight: 411
m/z	intensity
42	84
43	55
45	140
73	999
74	93
75	125
114	171
147	80
232	607
233	120
