Mass Spectrum: Trimethylsilyl catechollactate tris(trimethylsilyl) ether
Formula: C21H42O5Si4
CAS: 68595-72-2
Molecular weight: 486
m/z	intensity
40	20
43	15
44	26
45	128
46	8
47	10
55	4
58	6
59	18
69	7
72	8
73	999
74	79
75	77
76	6
77	14
91	4
102	4
103	4
105	5
115	5
117	8
119	5
129	4
131	17
133	23
135	5
147	153
148	21
149	21
161	5
163	6
177	5
179	130
180	22
181	6
191	18
192	7
193	7
205	7
207	23
209	15
219	30
220	5
221	4
223	5
237	4
249	5
251	9
265	18
267	766
268	191
269	68
270	13
279	7
281	13
292	12
293	8
307	4
309	7
353	6
369	9
381	13
382	4
396	124
397	41
398	22
399	6
443	8
471	22
472	9
486	49
487	22
488	12
