Mass Spectrum: Propanamide, N-(1,1-dimethylethyl)-2,2-dimethyl-
Formula: C9H19NO
CAS: 686-96-4
Molecular weight: 157
m/z	intensity
26	2
27	46
28	46
29	89
30	12
37	3
38	4
39	54
41	219
42	75
43	11
44	4
45	0
46	10
50	2
51	4
53	11
54	4
55	37
56	109
57	999
58	170
59	7
60	3
66	1
67	2
68	6
69	5
70	7
71	3
72	6
73	1
74	1
81	2
83	4
84	9
85	54
86	30
100	11
101	1
102	69
103	6
114	12
115	4
140	4
142	32
143	2
157	89
158	9
