Mass Spectrum: 2-[(2,2,6,6-Tetramethyl-piperidin-4-ylamino)-methyl]-phenol
Formula: C16H26N2O
CAS: 68617-71-0
Molecular weight: 262
m/z	intensity
33	0
34	0
37	0
39	59
40	22
41	137
42	274
43	62
44	51
45	1
48	0
49	0
50	6
51	24
52	18
53	29
54	16
55	84
56	60
57	101
58	729
59	24
60	0
61	0
62	1
63	6
64	3
65	15
66	11
67	20
68	12
69	11
70	24
71	19
72	6
73	1
74	1
75	1
77	123
78	105
79	45
80	8
81	14
82	42
83	22
84	53
85	6
86	1
87	0
89	1
90	1
91	8
92	3
93	7
94	10
95	14
96	21
98	999
99	89
100	6
101	0
102	1
103	2
104	2
105	9
106	36
107	133
108	22
109	4
110	12
111	2
112	24
113	6
114	1
115	1
116	0
117	0
118	1
119	1
120	6
121	7
122	33
123	14
124	130
125	14
126	4
127	0
128	0
129	0
130	2
131	5
132	16
133	4
134	11
135	1
136	0
137	0
138	3
139	7
140	35
141	46
142	4
143	0
144	0
145	2
146	17
147	3
148	14
149	36
150	45
151	4
152	0
153	1
155	221
156	23
157	1
158	0
159	0
160	0
162	44
163	27
164	5
165	0
169	0
171	0
172	0
173	0
174	1
175	0
176	0
186	0
187	0
188	7
189	2
190	31
191	4
192	0
202	0
204	18
205	46
206	7
207	0
218	0
228	0
229	0
230	1
231	1
244	0
245	3
247	22
248	3
249	0
256	0
257	0
258	0
260	2
261	4
262	71
263	12
264	1
