Mass Spectrum: 4-Cyclohexene-1,2-dicarboxylic acid, 4,5-dimethyl-, diethyl ester, trans--
Formula: C14H22O4
CAS: 68658-27-5
Molecular weight: 254
m/z	intensity
27	114
28	12
29	302
30	7
31	10
37	0
38	2
39	53
40	9
41	69
42	5
43	42
44	4
45	11
46	1
47	7
50	3
51	15
52	7
53	30
54	7
55	26
56	1
57	3
58	0
59	2
60	0
61	0
62	1
63	7
64	2
65	44
66	9
67	35
68	4
69	6
70	0
71	2
73	3
74	1
75	2
76	1
77	78
78	14
79	66
80	7
81	12
82	3
83	3
84	0
85	1
86	0
87	0
88	0
89	4
90	2
91	210
92	32
93	121
94	12
95	9
96	1
97	1
98	0
99	4
100	0
101	1
102	1
103	7
104	3
105	59
106	225
107	999
108	120
109	14
110	1
111	3
112	0
114	0
115	0
117	0
118	0
119	5
120	0
121	4
122	0
123	3
124	1
125	5
126	0
127	0
132	0
133	10
134	8
135	20
136	4
137	15
138	1
139	0
147	0
149	0
150	1
151	44
152	12
153	3
154	0
155	0
156	0
157	1
162	0
163	1
164	0
165	28
166	3
167	0
170	1
171	0
172	0
177	0
178	2
179	8
180	287
181	54
182	5
183	0
206	0
207	0
208	58
209	98
210	12
211	1
254	37
255	5
256	0
