Mass Spectrum: 9,19-Cyclocholest-24-en-3-ol, 14-methyl-, (3.beta.,5.alpha.)-
Formula: C28H46O
CAS: 68654-82-0
Molecular weight: 398
m/z	intensity
41	670
43	190
55	770
69	999
81	630
95	760
105	410
107	520
109	510
121	470
123	270
133	430
135	320
147	460
159	270
161	300
173	280
175	350
205	280
217	120
231	170
268	120
270	130
286	300
365	430
380	430
383	520
398	360
