Mass Spectrum: 9,19-Cyclocholest-24-en-3-ol, 14-methyl-, acetate, (3.beta.,5.alpha.)-
Formula: C30H48O2
CAS: 68654-81-9
Molecular weight: 440
m/z	intensity
41	700
43	860
55	860
69	999
70	500
81	730
93	650
95	840
133	420
135	380
145	380
147	510
159	410
173	300
175	400
189	120
205	100
227	110
269	260
311	70
365	230
380	370
440	50
