Mass Spectrum: Formaldehyde, (2-butenyl)methylhydrazone
Formula: C6H12N2
CAS: 68661-51-8
Molecular weight: 112
m/z	intensity
30	50
39	300
41	400
42	800
43	430
44	70
53	110
55	730
56	110
57	999
58	170
68	110
69	770
70	80
71	170
82	80
83	130
97	50
112	330
113	50
