Mass Spectrum: 2-Butanone, 4-hydroxy-3-(hydroxymethyl)-3-methyl-
Formula: C6H12O3
CAS: 6868-97-9
Molecular weight: 132
m/z	intensity
12	3
13	4
14	17
15	80
16	4
17	36
18	169
19	2
25	3
26	16
27	45
28	231
29	225
30	159
31	24
32	5
36	31
37	19
38	38
39	238
40	31
41	674
42	119
43	999
44	36
45	27
47	2
49	5
50	13
51	10
52	4
53	14
54	6
55	20
56	7
57	51
58	6
59	9
60	2
61	25
62	4
63	3
65	3
66	2
67	4
68	4
69	425
70	21
71	13
72	71
73	7
75	14
77	9
78	3
79	2
81	3
83	4
84	441
85	36
86	3
87	4
88	2
89	3
95	3
96	6
97	3
98	2
99	3
101	5
102	2
103	2
113	3
114	2
115	7
117	7
125	7
127	2
129	4
131	3
