Mass Spectrum: 1,7-Octadiene, 3-methylene-
Formula: C9H14
CAS: 68695-13-6
Molecular weight: 122
m/z	intensity
25	0
26	19
27	332
28	42
29	168
30	3
31	3
37	4
38	18
39	406
40	89
41	506
42	46
43	10
44	0
45	6
46	0
49	1
50	30
51	78
52	51
53	393
54	227
55	200
56	15
57	3
58	1
59	2
60	0
61	2
62	6
63	17
64	4
65	96
66	71
67	853
68	999
69	91
70	7
71	0
73	5
74	1
75	1
76	1
77	161
78	36
79	748
80	232
81	202
82	55
83	7
84	0
85	0
86	0
87	0
89	1
90	0
91	136
92	29
93	364
94	295
95	36
96	3
97	0
98	0
102	0
103	2
104	1
105	18
106	2
107	169
108	14
121	7
122	19
123	2
