Mass Spectrum: 5.alpha.-Pregnan-18-ol, 3.beta.,20.alpha.-diamino-
Formula: C21H38N2O
CAS: 6869-28-9
Molecular weight: 334
m/z	intensity
41	80
42	20
43	60
44	999
45	30
54	10
55	80
56	250
57	100
58	20
65	10
66	50
67	10
68	70
69	60
76	10
77	10
78	50
79	20
80	50
81	120
82	50
83	10
89	70
90	10
91	50
92	20
93	50
94	10
105	60
106	10
107	20
108	10
109	20
110	10
117	10
119	20
120	10
121	20
122	10
123	10
124	10
130	10
133	30
134	10
135	20
146	10
147	20
148	10
149	10
159	10
160	30
161	10
172	10
174	10
201	10
202	10
203	10
212	10
214	10
228	30
229	40
230	10
241	10
242	10
243	50
245	10
258	10
259	10
260	300
261	100
262	10
270	80
271	20
272	10
287	150
288	30
291	350
292	100
293	10
304	10
318	10
334	30
335	10
