Mass Spectrum: cis-3-Hexenyl heptine carbonate
Formula: C14H22O2
CAS: 68698-58-8
Molecular weight: 222
m/z	intensity
15	2
16	2
17	2
18	10
26	6
27	77
28	26
29	121
30	3
31	2
32	2
37	3
38	12
39	128
40	25
41	268
42	27
43	27
44	66
45	1
49	1
50	11
51	26
52	19
53	87
54	82
55	242
56	26
57	30
58	2
61	1
62	2
63	6
64	2
65	37
66	58
67	842
68	69
69	14
70	3
71	3
73	1
74	1
77	29
78	7
79	65
80	17
81	134
82	999
83	89
84	5
85	1
91	14
92	3
93	31
94	8
95	40
96	4
97	3
98	2
99	1
105	4
107	6
108	1
109	1
111	2
119	1
121	4
122	3
123	282
124	25
125	3
133	1
135	1
137	2
138	2
139	1
140	1
141	37
142	3
149	1
151	1
165	1
166	1
179	2
