Mass Spectrum: Pregn-5-en-20-one, 3,8,12,14-tetrahydroxy-, (3.beta.,12.beta.,14.beta.,17.alpha.)-
Formula: C21H32O5
CAS: 6869-50-7
Molecular weight: 364
m/z	intensity
37	14
38	31
39	364
40	83
41	720
42	68
43	999
44	129
45	77
50	47
51	150
52	77
53	404
54	70
55	514
56	45
57	87
58	35
59	16
61	14
62	8
63	75
64	27
65	204
66	83
67	400
68	58
69	162
70	41
71	270
72	25
73	12
74	12
75	16
76	25
77	454
78	137
79	558
80	108
81	558
82	68
83	170
84	145
85	216
86	25
87	14
89	20
90	20
91	624
92	183
93	412
94	131
95	258
96	154
97	756
98	118
99	108
100	35
101	20
102	25
103	87
104	77
105	641
106	200
107	333
108	183
109	381
110	172
111	250
112	41
113	320
114	77
115	170
116	47
117	166
118	62
119	281
120	895
121	395
122	235
123	639
124	152
125	162
126	45
127	70
128	135
129	125
130	87
131	162
132	50
133	162
134	129
135	200
136	129
137	139
138	187
139	79
140	62
141	137
142	108
143	166
144	89
145	341
146	97
147	758
148	235
149	125
150	47
151	100
152	58
153	362
154	195
155	100
156	29
157	125
158	62
159	172
160	62
161	375
162	312
163	200
164	262
165	279
166	337
167	400
168	70
169	79
170	25
171	237
172	45
173	77
174	322
175	141
176	77
177	125
178	41
179	77
180	599
181	131
182	37
183	56
184	70
185	56
186	29
187	66
188	35
189	83
190	45
191	56
192	125
193	83
194	79
195	33
196	139
197	56
198	16
199	56
200	16
201	35
202	14
203	45
204	62
205	62
206	41
207	50
208	154
209	66
210	16
211	33
212	14
213	29
214	12
215	47
216	35
217	56
218	16
219	20
220	16
221	35
222	62
223	58
224	16
225	54
226	54
227	54
228	16
229	16
230	14
231	108
232	35
233	114
234	25
235	20
237	20
239	35
240	20
241	25
242	8
243	56
244	12
245	14
246	8
247	8
249	31
250	10
251	35
252	16
253	45
254	20
255	14
256	8
257	20
258	20
259	8
261	37
262	20
263	8
265	8
266	10
267	37
268	12
269	27
270	12
271	45
272	14
273	8
275	14
276	166
277	56
278	8
279	16
280	10
283	14
284	8
285	112
286	35
287	12
288	41
289	14
290	14
292	8
295	133
296	27
297	10
299	10
300	10
301	10
302	12
303	54
304	20
309	10
310	16
311	20
313	362
314	95
315	14
325	10
326	237
327	75
328	14
329	129
330	29
331	8
344	14
346	979
347	312
348	58
349	16
364	16
