Mass Spectrum: Triflumizole
Formula: C15H15ClF3N3O
CAS: 68694-11-1
Molecular weight: 345
m/z	intensity
15	2
26	8
27	67
28	23
29	21
30	3
31	13
37	1
38	4
39	33
40	45
41	195
42	25
43	999
44	37
45	4
46	1
49	1
50	7
51	7
52	22
53	12
54	18
55	80
56	5
57	8
58	2
59	1
60	1
61	2
62	4
63	9
64	5
65	3
66	8
67	13
68	147
69	51
70	3
71	3
72	1
73	753
74	43
75	36
76	4
77	2
78	1
79	4
80	2
81	47
82	12
83	4
84	2
85	5
86	2
87	5
88	7
89	3
90	1
91	5
92	2
93	12
94	14
95	7
96	1
97	9
98	2
99	11
100	11
101	3
102	4
103	1
105	1
106	2
107	4
108	3
109	16
110	4
111	10
112	5
113	5
114	5
115	3
116	1
117	4
118	3
119	7
120	6
121	1
122	1
123	5
124	7
125	40
126	6
127	1
128	2
129	23
130	3
131	10
132	17
133	3
134	6
135	2
136	5
137	4
138	8
139	5
140	1
141	3
142	2
143	37
144	68
145	15
146	2
147	3
148	5
149	2
150	14
151	7
152	5
153	3
154	1
155	27
156	7
157	11
158	3
159	11
160	13
161	8
162	7
163	12
164	19
165	8
166	3
167	4
168	13
169	11
170	50
171	17
172	3
173	3
174	5
175	3
176	4
177	3
178	4
179	169
180	25
181	59
182	11
183	8
184	29
185	6
186	54
187	6
188	19
189	6
190	8
191	6
192	4
193	5
194	2
195	2
196	2
197	6
198	11
199	57
200	34
201	23
202	11
203	11
204	6
205	28
206	261
207	33
208	86
209	9
210	2
211	3
212	3
213	2
214	2
216	3
217	11
218	72
219	77
220	48
221	27
222	8
223	3
224	16
225	11
226	2
227	4
228	1
229	1
230	2
231	4
232	10
233	2
234	6
235	2
236	3
237	7
238	2
239	2
240	1
241	1
243	7
244	2
245	3
246	4
247	2
248	23
249	3
250	9
251	9
252	18
253	3
254	6
255	1
256	1
259	1
260	1
261	1
264	1
265	1
266	7
267	2
268	2
272	19
273	3
274	6
275	1
276	1
277	1
278	304
279	41
280	100
281	14
282	2
284	10
285	2
286	16
287	158
288	26
289	51
290	7
291	1
302	3
303	1
304	1
306	2
308	1
316	1
318	1
326	1
345	11
346	2
347	4
348	1
