Mass Spectrum: Norconanine, 3.beta.-(methylamino)-
Formula: C22H38N2
CAS: 6869-86-9
Molecular weight: 330
m/z	intensity
53	20
55	80
56	100
57	999
58	130
65	20
67	50
68	20
69	30
70	430
71	60
77	20
79	50
80	20
81	60
82	20
83	50
84	20
91	50
92	10
93	20
94	20
95	20
96	150
97	20
105	20
106	10
107	20
108	10
109	20
110	10
117	20
119	20
121	10
122	10
131	20
133	30
147	30
149	10
159	10
161	10
178	20
216	10
244	10
245	10
246	30
260	10
261	100
262	10
272	10
273	10
274	350
275	80
276	10
284	20
300	10
315	550
316	150
317	10
329	80
330	130
331	20
