Mass Spectrum: Pentanamide, 2-amino-4-methyl-, (S)-
Formula: C6H14N2O
CAS: 687-51-4
Molecular weight: 130
m/z	intensity
14	2
15	18
16	5
17	9
18	77
26	5
27	91
28	148
29	43
30	624
31	9
32	19
39	50
40	8
41	138
42	72
43	302
44	763
45	22
46	3
50	3
51	4
52	2
53	9
54	7
55	19
56	17
57	31
58	2
59	1
65	1
66	1
67	5
68	7
69	14
70	39
71	4
72	7
73	80
74	21
75	1
80	1
81	3
82	1
83	1
84	7
85	2
86	999
87	61
88	2
95	1
96	1
97	2
98	9
112	2
