Mass Spectrum: Glycyl-dl-serine
Formula: C5H10N2O4
CAS: 687-38-7
Molecular weight: 162
m/z	intensity
12	6
13	3
14	16
15	85
16	34
17	78
18	274
19	5
25	3
26	17
27	59
28	504
29	170
30	870
31	114
32	15
36	3
38	7
39	11
40	28
41	82
42	262
43	108
44	253
45	24
46	22
47	2
51	3
52	5
53	8
54	15
55	53
56	48
57	228
58	44
59	30
60	261
61	9
67	6
68	10
69	36
70	26
71	39
72	14
73	29
74	136
75	75
76	4
77	3
78	2
79	2
80	9
81	8
82	6
83	17
84	11
85	192
86	43
87	9
88	8
91	2
93	3
95	5
96	4
97	14
98	17
99	15
100	5
101	13
102	3
104	2
107	2
108	2
109	4
110	3
111	4
112	3
113	33
114	999
115	57
116	8
119	5
120	4
121	4
123	2
124	2
125	4
126	37
127	9
128	4
129	2
136	2
137	3
138	3
139	3
140	4
143	3
144	7
