Mass Spectrum: 1,8-Nonadiene, 2,7-dimethyl-5-(1-methylethenyl)-
Formula: C14H24
CAS: 68702-20-5
Molecular weight: 192
m/z	intensity
27	37
28	69
29	132
30	3
31	1
38	1
39	55
40	27
41	489
42	36
43	228
44	7
45	1
50	3
51	5
52	4
53	139
54	33
55	541
56	55
57	81
58	4
59	2
60	1
61	1
64	1
65	36
66	22
67	478
68	236
69	453
70	35
71	21
72	2
73	3
74	1
75	2
76	1
77	89
78	18
79	253
80	191
81	590
82	457
83	211
84	19
85	4
86	1
89	1
90	1
91	140
92	46
93	592
94	255
95	542
96	165
97	58
98	6
99	1
103	5
104	2
105	77
106	106
107	999
108	299
109	342
110	131
111	31
112	3
113	1
115	1
116	2
117	4
118	2
119	27
120	20
121	516
122	380
123	313
124	79
125	7
131	2
132	1
133	11
134	9
135	250
136	203
137	92
138	16
139	1
147	3
148	7
149	370
150	136
151	22
152	1
162	1
163	117
164	93
165	12
175	1
176	1
177	212
178	32
179	1
180	0
191	2
192	124
193	20
194	2
