Mass Spectrum: Echitamine
Formula: C22H29N2O4
CAS: 6871-44-9
Molecular weight: 385
m/z	intensity
41	190
42	326
43	459
44	999
45	352
46	92
49	27
50	30
51	53
52	27
53	72
54	28
55	129
56	64
57	243
58	189
59	74
60	193
61	26
63	28
64	14
65	45
66	21
67	48
68	37
69	52
70	68
71	64
72	25
73	59
74	26
75	17
76	23
77	110
78	63
79	64
80	21
81	59
82	69
83	46
84	64
85	42
86	20
87	21
88	14
89	34
90	21
91	61
92	22
93	37
94	48
95	39
96	58
97	58
98	40
99	17
101	22
102	30
103	33
104	22
105	48
106	44
107	35
108	77
109	57
110	151
111	60
112	72
113	19
114	13
115	66
116	33
117	58
118	30
119	26
120	25
121	28
122	135
123	78
124	118
125	27
126	17
127	30
128	41
129	53
130	149
131	68
132	37
133	32
134	34
135	23
136	38
137	28
138	39
139	25
140	29
141	22
142	43
143	131
144	120
145	40
146	40
147	21
148	17
149	110
150	35
151	28
152	126
153	40
154	57
155	25
156	43
157	38
158	50
159	31
160	21
161	21
162	21
163	21
164	33
165	23
166	39
167	69
168	57
169	27
170	49
171	36
172	51
173	30
174	18
177	14
178	35
179	25
180	62
181	26
182	43
183	38
184	33
185	45
186	28
187	17
188	32
189	16
190	15
191	21
192	34
193	29
194	64
195	22
196	29
197	20
198	35
199	21
200	25
201	44
202	20
203	24
204	31
205	26
206	36
207	27
208	40
209	17
210	27
211	19
212	18
213	21
214	18
215	13
216	42
217	19
218	25
219	17
220	40
221	24
222	26
223	20
224	25
225	23
226	23
227	35
228	17
229	18
230	17
232	76
233	23
234	31
235	30
236	25
237	14
238	34
241	13
242	13
243	14
246	13
248	17
249	14
250	21
251	15
252	46
253	23
254	30
262	19
263	15
264	16
265	17
266	31
267	27
277	14
278	15
279	22
280	17
281	16
293	23
294	15
295	13
310	20
322	14
323	16
325	13
341	38
352	16
353	22
354	13
355	14
368	13
369	17
380	24
382	31
383	17
384	198
385	49
