Mass Spectrum: 1,2,4-Selenadiazole, 3,5-bis(2-thienyl)-
Formula: C10H6N2S2Se
CAS: 68723-63-7
Molecular weight: 298
m/z	intensity
39	120
45	240
57	30
58	180
64	70
69	40
70	60
82	50
109	999
110	70
111	40
112	30
185	190
186	160
187	450
188	30
189	910
190	70
191	210
294	60
295	50
296	140
298	300
299	40
300	80
