Mass Spectrum: Curan-17-al, 2,16-didehydro-
Formula: C19H22N2O
CAS: 6872-34-0
Molecular weight: 294
m/z	intensity
41	999
42	540
43	360
44	40
49	10
50	130
51	290
52	150
53	170
54	160
55	330
56	460
57	380
58	120
59	10
60	10
61	20
62	50
63	180
64	70
65	280
66	40
67	100
68	170
69	160
70	580
71	190
72	20
73	20
74	50
75	100
76	100
77	320
78	100
79	130
80	70
81	50
82	130
83	50
84	730
85	80
86	20
87	30
88	40
89	120
90	100
91	80
92	450
93	90
94	450
95	70
96	50
97	40
98	70
99	480
100	40
101	70
102	90
103	80
104	70
105	50
106	230
107	370
108	70
109	30
110	130
111	50
112	50
113	50
114	50
115	240
116	80
117	110
118	50
119	20
120	10
121	10
122	110
123	930
124	140
125	50
126	60
127	130
128	180
130	170
131	70
132	30
133	40
134	30
135	10
136	10
138	60
139	130
140	160
141	70
142	50
143	130
144	120
145	30
147	80
149	100
150	10
151	30
152	80
153	60
154	250
155	120
156	280
157	90
158	40
159	10
164	20
165	40
166	140
167	620
168	780
169	200
170	200
171	50
172	30
173	10
177	10
178	40
179	50
180	360
181	190
182	260
183	80
184	100
185	160
186	40
187	10
190	10
191	40
192	60
193	80
194	160
195	210
196	250
197	230
198	70
199	10
204	40
205	40
206	70
207	70
208	140
209	170
210	390
211	90
212	10
218	20
219	20
220	60
221	90
222	110
223	90
224	130
225	999
226	250
227	20
233	10
234	20
235	20
236	40
237	70
238	120
239	80
240	10
247	20
248	10
249	30
250	20
251	50
252	20
263	10
265	170
266	70
267	10
276	20
277	20
278	10
279	20
293	40
294	430
295	100
296	10
