Mass Spectrum: Dimethyl N-methyl-N-phenylthiomethyl-amino-butanedioate
Formula: C14H19NO4S
CAS: 68729-26-0
Molecular weight: 297
m/z	intensity
31	91
39	358
40	91
41	161
42	676
43	293
44	227
45	611
46	7
47	116
50	156
51	257
52	30
53	56
54	111
55	293
56	192
57	247
58	298
59	444
60	5
65	348
66	651
67	126
68	358
69	303
70	116
71	136
72	267
73	30
74	126
75	722
76	91
77	328
78	76
82	192
83	86
84	459
85	141
86	106
88	76
95	56
96	76
97	131
98	192
99	61
100	131
102	146
107	30
108	86
109	449
110	999
111	267
112	116
113	146
114	156
115	15
116	444
117	363
118	25
123	40
124	45
125	45
126	40
127	86
128	611
129	81
130	262
131	4
141	61
155	40
156	126
157	131
158	35
159	40
160	35
171	116
172	146
173	9
187	126
188	146
189	11
