Mass Spectrum: Methyl 1-phenylthiomethyl-pyrrolidine-2-carboxylate
Formula: C13H17NO2S
CAS: 68729-25-9
Molecular weight: 251
m/z	intensity
39	305
40	45
41	387
42	270
43	53
44	52
45	228
50	77
51	228
52	54
53	99
54	98
55	221
56	101
57	38
58	101
59	152
65	254
66	575
67	153
68	253
69	168
77	246
78	91
79	53
80	106
81	385
82	689
83	154
84	270
95	46
96	91
108	306
109	421
110	999
111	269
112	192
126	216
127	46
140	308
141	538
142	100
