Mass Spectrum: 2-Octene, 3,7-dimethyl-, (Z)-
Formula: C10H20
CAS: 6874-32-4
Molecular weight: 140
m/z	intensity
23	2
24	1
25	2
26	12
27	214
28	41
29	187
30	4
31	2
32	1
37	2
38	7
39	182
40	34
41	674
42	173
43	344
44	12
45	5
50	5
51	17
52	10
53	77
54	39
55	650
56	291
57	91
58	4
62	0
63	2
64	1
65	12
66	6
67	77
68	41
69	515
70	999
71	145
72	6
74	0
77	9
78	2
79	9
80	2
81	23
82	14
83	110
84	78
85	13
86	0
91	2
93	2
95	6
96	3
97	15
98	4
99	0
105	0
109	1
110	1
111	53
112	10
113	1
125	6
126	0
138	1
139	1
140	159
141	19
142	1
143	0
