Mass Spectrum: (2E,4E)-3,7-Dimethylocta-2,4-diene
Formula: C10H18
CAS: 6874-39-1
Molecular weight: 138
m/z	intensity
26	2
27	86
28	12
29	64
30	1
37	2
38	7
39	170
40	32
41	318
42	21
43	124
44	5
45	1
46	1
49	1
50	11
51	47
52	28
53	156
54	29
55	333
56	18
57	13
59	1
60	1
62	3
63	15
65	60
66	23
67	824
68	56
69	43
70	12
71	2
77	122
78	22
79	161
80	60
81	183
82	419
83	27
84	1
91	30
92	6
93	121
94	23
95	999
96	95
97	5
106	2
107	17
108	3
109	149
110	14
111	1
121	4
122	1
123	59
124	5
137	2
138	362
139	40
140	2
