Mass Spectrum: Methanone, (5-chloro-2-hydroxy-4-methylphenyl)phenyl-
Formula: C14H11ClO2
CAS: 68751-90-6
Molecular weight: 246
m/z	intensity
40	4
41	0
43	3
44	0
49	1
50	108
51	402
52	39
53	73
61	11
62	24
63	47
64	4
65	1
66	0
67	0
69	7
70	0
72	2
73	17
74	30
75	54
76	26
77	999
78	86
79	1
81	10
82	7
84	3
85	4
86	6
87	15
89	9
92	0
93	0
96	0
97	7
99	0
100	1
101	2
102	3
103	1
105	491
106	13
107	2
110	2
111	14
112	29
113	49
114	4
115	17
116	1
117	0
122	41
123	25
125	1
126	3
128	0
129	0
131	0
132	0
133	5
134	0
137	1
138	0
139	45
140	52
141	38
142	7
143	0
149	1
150	6
151	11
152	41
153	18
162	0
163	9
164	6
165	21
166	1
167	1
168	217
169	517
170	96
171	149
172	0
173	1
181	30
182	9
193	4
194	0
199	3
200	5
201	0
202	5
204	0
209	11
210	9
211	12
212	0
217	4
218	0
219	0
228	0
229	27
230	0
231	7
232	1
233	0
245	847
246	618
247	341
248	188
249	11
