Mass Spectrum: 3-Dimethylamino-1-(4-nitrophenyl)prop-2-en-1-one
Formula: C11H12N2O3
CAS: 68760-11-2
Molecular weight: 220
m/z	intensity
30	132
37	15
38	30
39	42
40	24
41	70
42	520
43	125
44	112
45	29
46	32
47	2
49	10
50	235
51	55
52	31
53	52
54	54
55	300
56	21
57	3
58	9
61	13
62	29
63	54
64	25
65	19
66	8
67	3
68	40
69	13
70	291
71	16
72	16
73	16
74	105
75	131
76	260
77	69
78	20
79	6
80	3
81	6
82	44
83	9
84	14
85	7
86	9
87	10
88	6
89	29
90	39
91	21
92	33
93	3
94	3
96	1
98	999
99	64
100	5
101	11
102	31
103	55
104	124
105	25
106	15
107	4
114	2
115	17
116	16
117	7
118	15
119	4
120	11
121	1
127	1
128	3
129	7
130	52
131	51
132	18
136	26
143	3
144	22
145	13
146	6
147	4
148	6
150	73
151	5
156	8
157	158
158	30
159	78
160	22
161	4
162	23
163	2
172	3
173	46
174	23
175	4
176	11
177	6
178	4
186	2
187	16
188	2
189	9
190	1
203	802
204	106
205	61
206	6
219	30
220	370
221	56
222	5
