Mass Spectrum: Bicyclo[3.1.1]heptane, 2,6,6-trimethyl-, (1.alpha.,2.beta.,5.alpha.)-
Formula: C10H18
CAS: 6876-13-7
Molecular weight: 138
m/z	intensity
26	18
27	351
28	15
29	253
30	5
31	0
32	0
36	0
37	4
38	12
39	354
40	57
41	916
42	63
43	162
44	3
45	1
46	1
47	2
48	1
49	1
50	15
51	55
52	25
53	190
54	62
55	999
56	83
57	65
58	4
59	1
62	3
63	12
64	2
65	53
66	29
67	616
68	391
69	551
70	81
71	6
74	1
75	2
76	1
77	75
78	18
79	106
80	74
81	527
82	683
83	567
84	67
85	3
86	0
89	1
90	1
91	41
92	5
93	33
94	99
95	832
96	316
97	54
98	2
103	2
105	5
106	1
107	5
108	3
109	79
110	33
111	2
115	0
121	3
122	2
123	208
124	21
125	1
137	1
138	43
139	4
