Mass Spectrum: 23-Norcona-5,18(22)-dienin-3-amine, N-methyl-, (3.beta.)-
Formula: C22H34N2
CAS: 6877-20-9
Molecular weight: 326
m/z	intensity
41	30
42	30
43	10
44	20
55	30
56	20
57	40
67	10
68	10
70	999
71	40
77	20
79	10
80	10
81	10
82	10
84	20
91	30
93	20
94	10
105	20
106	10
107	20
108	10
117	10
119	20
120	10
121	10
122	20
130	10
147	10
149	10
256	10
257	650
258	140
259	10
310	10
325	10
326	50
327	10
