Mass Spectrum: Cyclohexane, 1,5-diethenyl-2,3-dimethyl-, (1.alpha.,2.beta.,3.beta.,5.beta.)-
Formula: C12H20
CAS: 68779-12-4
Molecular weight: 164
m/z	intensity
27	62
28	32
29	114
30	3
32	3
38	1
39	112
40	28
41	489
42	35
43	132
44	6
50	4
51	12
52	10
53	167
54	155
55	393
56	104
57	32
58	3
59	1
63	2
64	2
65	62
66	164
67	528
68	175
69	251
70	42
71	11
75	3
77	169
78	60
79	663
80	194
81	432
82	431
83	53
84	10
85	4
86	1
89	4
90	3
91	162
92	52
93	574
94	415
95	411
96	80
97	25
98	2
103	4
104	2
105	44
106	54
107	999
108	278
109	155
110	83
111	8
112	1
115	2
117	4
119	12
120	11
121	329
122	144
123	51
124	3
131	1
133	3
134	4
135	359
136	277
137	32
138	1
147	1
149	161
150	19
151	1
162	1
163	2
164	51
165	6
