Mass Spectrum: Cyclohexane, 1,5-diethenyl-2,3-dimethyl-, (1.alpha.,2.alpha.,3.alpha.,5.beta.)-
Formula: C12H20
CAS: 68779-14-6
Molecular weight: 164
m/z	intensity
27	73
28	31
29	126
30	2
32	2
39	120
40	31
41	533
42	41
43	141
44	5
50	3
51	10
52	11
53	168
54	157
55	435
56	95
57	35
58	3
59	1
60	1
63	1
64	2
65	62
66	153
67	543
68	153
69	291
70	50
71	11
72	1
75	3
76	1
77	178
78	57
79	663
80	169
81	440
82	493
83	67
84	9
85	3
89	4
90	2
91	156
92	43
93	589
94	375
95	447
96	81
97	23
98	1
103	5
104	2
105	46
106	56
107	999
108	308
109	156
110	63
111	7
112	2
115	2
116	2
117	3
118	1
119	12
120	17
121	379
122	137
123	55
124	4
131	1
133	3
134	3
135	350
136	236
137	29
138	1
147	1
149	192
150	22
163	2
164	111
165	13
166	1
