Mass Spectrum: 8-Acetyl-5,5-dimethyl-nona-2,3,8-trienoic acid, methyl ester
Formula: C14H20O3
CAS: 68799-74-6
Molecular weight: 236
m/z	intensity
26	7
27	84
28	37
29	70
30	3
31	7
33	2
37	2
38	18
39	172
40	38
41	258
42	25
43	999
44	40
45	34
50	16
51	66
52	40
53	138
54	28
55	152
56	31
57	28
58	6
59	195
60	8
61	3
62	7
63	31
64	13
65	82
66	35
67	98
68	28
69	111
70	17
71	21
72	3
73	46
74	10
75	11
76	8
77	223
78	73
79	263
80	85
81	173
82	29
83	45
84	9
85	18
86	3
87	10
88	5
89	12
90	5
91	270
92	47
93	204
94	35
95	89
96	31
97	269
98	37
99	11
100	5
101	8
102	11
103	29
104	18
105	173
106	47
107	129
108	38
109	60
110	24
111	99
112	20
113	18
114	21
115	35
116	14
117	51
118	33
119	218
120	58
121	190
122	39
123	57
124	23
125	78
126	11
127	9
128	16
129	21
130	9
131	31
132	17
133	353
134	69
135	100
136	25
137	48
138	34
139	270
140	57
141	14
142	7
143	41
144	16
145	40
146	30
147	175
148	82
149	66
150	27
151	31
152	15
153	37
154	7
155	4
156	4
157	8
158	11
159	54
160	23
161	434
162	134
163	100
164	15
165	27
166	13
167	39
168	15
169	6
170	3
171	15
172	3
173	4
174	4
175	31
176	109
177	136
178	35
179	55
180	67
181	17
182	3
183	4
184	3
185	4
186	7
187	12
188	4
189	126
190	23
191	8
192	6
193	225
194	65
195	11
196	3
203	50
204	195
205	94
206	16
207	8
208	36
209	6
210	3
218	8
219	5
220	3
221	149
222	21
223	5
224	2
235	14
236	183
237	27
238	6
