Mass Spectrum: Glycyl-d-leucine
Formula: C8H16N2O3
CAS: 688-13-1
Molecular weight: 188
m/z	intensity
14	2
15	9
16	1
17	2
18	7
26	3
27	53
28	92
29	35
30	999
31	64
32	5
36	2
37	1
38	5
39	47
40	10
41	84
42	32
43	90
44	57
45	12
46	5
50	3
51	4
52	4
53	11
54	9
55	26
56	30
57	20
58	5
59	6
60	2
65	1
66	2
67	7
68	9
69	20
70	33
71	7
72	4
73	29
74	23
75	6
80	1
81	3
82	8
83	5
84	41
85	37
86	160
87	9
88	9
89	4
90	1
95	2
96	2
97	4
98	7
99	18
100	3
101	5
102	3
103	9
104	1
109	1
110	1
111	2
112	9
113	8
114	72
115	8
116	21
117	2
125	2
126	2
127	42
128	5
129	1
130	9
131	6
132	124
133	7
134	1
141	3
142	6
143	19
144	4
145	14
146	1
153	1
154	1
155	2
158	6
159	3
170	3
171	1
173	5
188	37
189	3
