Mass Spectrum: 4H-Imidazol-4-one, 1,5-dihydro-1-phenyl-2-(phenylamino)-5-(phenylimino)-
Formula: C21H16N4O
CAS: 68822-96-8
Molecular weight: 340
m/z	intensity
27	4
28	3
29	1
38	1
39	6
40	2
41	15
42	2
43	4
50	3
51	23
52	4
53	2
55	3
56	3
57	1
63	3
64	12
65	23
66	8
67	6
68	6
69	8
70	2
75	2
76	17
77	312
78	25
79	2
81	3
82	1
90	9
91	133
92	24
93	7
95	1
102	1
103	35
104	918
105	71
106	2
109	2
117	33
118	999
119	128
120	20
121	2
129	4
143	1
144	16
145	11
146	1
148	1
152	1
154	1
155	1
156	19
166	3
167	4
168	2
169	1
170	4
180	2
192	3
193	6
194	41
195	14
196	2
207	1
208	2
209	1
218	1
219	3
220	156
221	36
222	4
223	4
235	9
236	5
240	1
263	1
309	1
311	7
312	1
313	1
339	25
340	651
341	157
342	20
343	1
