Mass Spectrum: 1,6-Dideoxy-l-mannitol
Formula: C6H14O4
CAS: 68832-20-2
Molecular weight: 150
m/z	intensity
41	212
42	484
43	546
44	67
45	999
46	35
47	30
48	1
49	7
50	6
51	13
52	5
53	20
54	10
55	262
56	20
57	478
58	688
59	148
60	149
61	125
62	7
63	8
64	0
65	3
66	1
67	3
68	3
69	181
70	533
71	96
72	9
73	369
74	27
75	92
76	8
77	9
78	27
79	2
80	0
81	1
82	1
83	2
84	2
85	4
86	9
87	91
88	383
89	28
90	3
91	1
92	0
93	0
94	0
95	2
96	0
97	4
98	0
99	4
100	0
103	1
104	0
105	9
106	10
107	2
108	0
109	0
110	0
111	0
113	1
114	0
115	12
116	0
117	7
118	0
121	0
123	0
124	0
125	0
127	0
131	1
132	0
133	11
134	0
149	0
150	9
151	0
