Mass Spectrum: (R)-(-)-2-Pyrrolidinemethanol
Formula: C5H11NO
CAS: 68832-13-3
Molecular weight: 101
m/z	intensity
15	11
18	10
26	7
27	44
28	218
29	33
30	58
31	31
36	1
38	5
39	37
40	10
41	95
42	37
43	149
44	21
53	9
54	11
55	47
56	11
57	2
67	6
68	71
69	10
70	999
71	55
72	7
80	2
82	8
100	5
101	8
