Mass Spectrum: 4-Bromo-2-methylbenzoic acid
Formula: C8H7BrO2
CAS: 68837-59-2
Molecular weight: 214
m/z	intensity
41	32
42	10
43	132
44	166
45	248
46	6
47	7
48	7
49	83
50	304
51	360
52	81
53	134
55	26
56	3
57	9
58	50
59	37
60	17
61	156
62	429
63	891
64	179
65	129
66	23
67	24
68	4
69	8
70	2
71	6
72	3
73	36
74	138
75	104
76	27
77	405
78	155
79	136
80	17
81	36
82	13
83	12
84	91
85	134
86	139
87	116
88	59
89	999
90	500
91	200
92	21
93	8
94	2
95	6
98	82
99	81
101	3
102	1
103	2
104	8
105	30
106	13
107	46
108	7
109	1
111	1
115	1
116	14
117	39
118	21
119	33
120	2
121	2
125	0
128	4
129	5
130	4
131	5
133	10
134	3
135	56
136	6
137	0
140	0
141	12
142	0
143	28
145	17
149	1
152	1
153	2
154	3
155	9
156	2
157	11
159	4
162	3
163	1
167	2
168	314
169	294
170	292
171	271
172	19
173	2
180	3
183	5
185	7
186	2
187	2
188	2
194	2
196	872
197	334
198	862
199	336
200	26
201	5
211	2
213	5
214	818
215	84
216	790
217	65
218	6
