Mass Spectrum: Methyl leucinate,  TMS derivative
Formula: C10H23NO2Si
CAS: 68835-83-6
Molecular weight: 217
m/z	intensity
25	3
26	4
27	26
29	64
30	13
33	3
38	3
39	16
40	2
41	53
42	9
43	53
44	45
45	156
46	17
47	8
49	4
51	5
53	5
54	7
55	16
56	14
57	37
58	29
59	179
60	25
61	19
64	3
66	3
67	5
68	6
69	32
70	16
71	10
72	33
73	999
74	113
75	90
76	5
77	2
82	6
83	4
84	15
85	10
86	25
87	5
88	7
89	131
90	16
91	9
96	4
97	7
98	13
99	8
100	69
101	17
102	24
103	3
105	29
106	6
112	7
113	4
114	23
115	10
116	12
117	1
118	5
126	4
128	23
129	18
130	42
131	6
132	4
142	55
143	8
144	12
145	13
146	11
156	8
157	6
158	931
159	143
160	849
161	114
162	40
163	4
170	8
172	4
174	98
175	20
176	6
188	5
202	52
203	10
204	4
