Mass Spectrum: Methylcarbamothioic acid, O-butyl ester
Formula: C6H13NOS
CAS: 6884-86-2
Molecular weight: 147
m/z	intensity
27	300
28	200
29	400
30	230
39	170
41	400
42	90
43	54
45	49
47	60
55	75
56	220
57	120
58	920
59	44
60	65
74	330
75	41
91	100
92	999
93	37
94	47
147	190
148	15
149	10
