Mass Spectrum: Ekatetrone triacetate
Formula: C25H19NO10
CAS: 68877-95-2
Molecular weight: 493
m/z	intensity
42	460
43	999
59	350
60	190
73	70
101	380
139	20
252	30
263	30
265	40
281	150
291	380
309	790
322	110
332	10
350	110
351	100
367	20
374	20
392	40
409	80
433	30
451	30
475	0
493	0
