Mass Spectrum: Cyclopropanecarboxylic acid,isopropyl ester
Formula: C7H12O2
CAS: 6887-83-8
Molecular weight: 128
m/z	intensity
36	7
37	18
38	25
39	240
40	52
41	483
42	140
43	478
44	45
45	70
51	4
55	33
56	33
57	6
58	12
59	400
60	12
68	28
69	999
70	65
71	7
85	37
86	50
87	520
88	23
113	50
114	3
128	4
129	1
