Mass Spectrum: 2-Chloroethylamine
Formula: C2H6ClN
CAS: 689-98-5
Molecular weight: 79
m/z	intensity
12	1
13	1
14	8
15	42
16	2
17	6
18	13
25	1
26	9
27	44
28	9
29	9
30	999
31	13
35	9
36	100
37	4
38	33
39	4
40	9
41	16
42	88
43	34
44	21
47	2
48	3
49	8
50	1
51	2
61	1
62	2
63	1
78	18
79	31
80	7
81	9
