Mass Spectrum: 1-Butene, 3-(butylthio)-
Formula: C8H16S
CAS: 689-90-7
Molecular weight: 144
m/z	intensity
25	1
26	28
27	291
28	55
29	292
30	6
33	1
34	2
35	11
37	3
38	13
39	185
40	18
41	156
42	11
43	26
44	6
45	130
46	35
47	137
48	5
49	8
50	16
51	27
52	8
53	104
54	323
55	999
56	244
57	48
58	24
59	98
60	60
61	59
62	5
63	3
65	1
67	17
68	6
69	15
70	2
71	30
72	6
73	63
74	6
75	21
76	1
77	1
81	6
82	2
83	1
85	16
86	30
87	205
88	202
89	118
90	71
91	9
92	3
95	7
97	1
99	2
101	41
102	5
103	8
104	0
111	3
115	11
116	1
117	2
129	29
130	2
131	1
144	320
145	30
146	14
147	1
