Mass Spectrum: Methyl 10-oxohexadecanoate
Formula: C17H32O3
CAS: 689-69-0
Molecular weight: 284
m/z	intensity
29	209
30	5
31	7
32	24
33	6
39	51
41	440
42	79
43	999
44	22
45	52
51	3
52	4
53	31
54	22
55	579
56	85
57	310
58	441
59	279
60	11
61	9
63	11
65	3
66	5
67	90
68	65
69	379
70	44
71	383
72	111
73	33
74	63
75	3
76	4
77	5
79	42
80	23
81	119
82	45
83	203
84	154
85	284
86	50
87	119
88	2
90	5
91	3
93	34
94	24
95	99
96	76
97	254
98	169
99	201
100	29
101	39
103	7
105	5
107	41
108	9
109	40
110	59
111	159
112	70
113	251
114	89
115	74
116	9
120	3
121	109
122	14
123	19
124	134
125	300
126	49
127	70
128	165
129	64
130	84
131	11
132	10
133	9
135	51
136	9
137	14
138	53
139	260
140	74
141	54
142	49
143	54
144	41
145	10
146	7
149	12
150	3
151	9
152	10
153	51
154	34
155	19
156	60
157	134
158	42
161	2
162	3
163	5
164	32
167	24
168	21
169	9
170	31
171	103
172	52
173	5
178	9
179	3
181	24
182	29
183	34
184	3
185	39
186	5
187	4
189	4
193	2
194	2
195	14
196	19
197	6
199	79
200	22
201	4
203	3
204	4
207	3
209	6
210	14
211	24
212	2
213	40
214	94
215	12
217	11
222	2
223	14
224	9
225	3
226	8
228	49
229	6
234	5
235	10
236	3
253	64
254	19
269	3
284	12
285	8
