Mass Spectrum: 5,9-Undecadien-2-one, 6,10-dimethyl-
Formula: C13H22O
CAS: 689-67-8
Molecular weight: 194
m/z	intensity
26	4
27	48
28	4
29	30
30	1
31	1
36	0
37	2
38	3
39	70
40	16
41	316
42	19
43	999
44	22
45	6
50	2
51	10
52	6
53	51
54	9
55	38
56	5
57	3
58	44
59	3
62	1
63	3
64	1
65	11
66	6
67	56
68	44
69	429
70	26
71	19
72	1
75	0
76	0
77	15
78	4
79	17
80	9
81	34
82	19
83	30
84	3
85	4
86	0
89	0
91	13
92	5
93	49
94	7
95	17
96	3
97	2
98	2
99	0
103	1
104	1
105	5
106	2
107	47
108	19
109	38
110	3
111	13
112	2
113	1
115	1
119	3
120	2
121	21
122	3
123	12
124	6
125	69
126	9
127	1
133	4
134	1
135	3
136	64
137	8
138	3
139	1
141	1
142	0
147	0
148	0
149	1
150	3
151	67
152	7
153	0
155	0
161	5
162	1
176	7
177	1
179	1
194	22
195	2
196	0
