Mass Spectrum: 2H-1-Benzopyran-2-one, 3-iodo-4-phenoxy-
Formula: C15H9IO3
CAS: 68903-74-2
Molecular weight: 364
m/z	intensity
50	440
51	999
76	440
77	670
92	100
105	140
106	130
116	200
144	80
152	110
153	80
181	110
193	170
209	90
236	80
237	550
238	100
364	600
365	110
