Mass Spectrum: 1H-Benzocyclohepten-7-ol, 2,3,4,4a,5,6,7,8-octahydro-1,1,4a,7-tetramethyl-, cis-
Formula: C15H26O
CAS: 6892-80-4
Molecular weight: 222
m/z	intensity
26	12
27	166
28	28
29	216
31	24
39	159
40	9
41	530
42	30
43	999
44	23
45	43
50	5
51	39
52	16
53	174
54	23
55	354
56	32
57	152
58	35
59	11
63	18
64	7
65	77
66	27
67	275
68	34
69	522
70	33
71	211
72	35
73	8
75	15
77	201
78	30
79	268
80	56
81	460
82	229
83	108
84	14
85	12
89	6
91	199
92	32
93	322
94	97
95	906
96	222
97	62
98	13
99	77
100	10
103	19
104	8
105	162
106	31
107	251
108	94
109	497
110	88
111	44
112	10
113	16
115	20
116	8
117	21
118	9
119	107
120	40
121	199
122	99
123	191
124	32
125	44
127	11
128	5
129	6
131	12
133	77
134	28
135	183
136	41
137	126
138	47
139	25
140	49
141	9
145	9
147	66
148	22
149	96
150	84
151	983
152	218
153	44
154	18
161	52
162	9
163	14
164	80
165	70
166	37
167	5
175	19
176	9
177	6
179	24
180	5
189	55
190	11
193	27
194	5
204	27
207	29
222	198
223	29
