Mass Spectrum: 3,7,11,15-Tetramethylhexadeca-1,6,10,14-tetraen-3-ol
Formula: C20H34O
CAS: 68931-30-6
Molecular weight: 290
m/z	intensity
26	4
27	63
28	3
29	77
30	3
31	12
37	2
38	3
39	74
40	29
41	422
42	48
43	332
44	24
45	18
50	3
51	10
52	7
53	92
54	22
55	219
56	25
57	64
58	20
59	15
62	3
64	6
65	23
66	22
67	180
68	127
69	999
70	79
71	244
72	25
73	9
74	2
75	4
77	71
78	17
79	117
80	85
81	445
82	97
83	67
84	30
85	26
86	6
87	3
89	4
91	94
92	58
93	371
94	66
95	185
96	30
97	40
98	8
99	9
100	2
101	5
102	2
103	6
104	4
105	64
106	28
107	240
108	51
109	140
110	27
111	36
112	5
113	6
115	5
116	3
117	8
118	4
119	68
120	34
121	124
122	45
123	90
124	22
125	22
126	6
127	11
128	6
129	3
130	2
131	11
132	14
133	61
134	50
135	156
136	157
137	90
138	26
139	12
140	4
141	3
143	2
144	1
145	17
146	11
147	91
148	46
149	42
150	18
151	19
152	5
153	15
154	1
159	28
160	13
161	117
162	39
163	28
164	44
165	9
166	9
167	3
168	1
172	1
173	10
174	5
175	34
176	12
177	31
178	9
179	18
180	3
181	1
183	1
187	28
188	19
189	71
190	46
191	53
192	12
193	6
194	1
195	1
201	15
202	11
203	126
204	107
205	24
206	8
207	5
208	2
210	1
211	1
212	1
215	7
216	8
217	7
218	3
219	6
220	8
221	12
222	2
224	1
229	25
230	11
231	2
243	3
244	3
245	5
247	3
248	1
257	16
258	3
259	1
262	2
263	1
272	65
273	14
274	1
275	2
276	1
278	1
288	1
290	47
291	9
292	1
