Mass Spectrum: [2-(5-Hydroxypent-2-enyl)-3-oxocyclopentyl]thioacetic acid, S-t-butyl ester
Formula: C16H26O3S
CAS: 68931-53-3
Molecular weight: 298
m/z	intensity
26	7
27	97
28	34
29	241
30	8
31	99
37	4
38	9
39	169
40	33
41	547
42	43
43	104
44	16
45	26
46	3
47	15
48	2
49	18
50	23
51	44
52	36
53	124
54	60
55	386
56	50
57	999
58	56
59	42
60	6
61	18
62	4
63	14
64	5
65	68
66	47
67	245
68	55
69	63
70	17
71	83
72	9
73	24
74	19
75	30
76	14
77	159
78	141
79	280
80	57
81	134
82	114
83	301
84	35
85	41
86	8
87	15
88	10
89	23
90	21
91	206
92	56
93	178
94	50
95	137
96	260
97	113
98	31
99	26
100	8
101	10
102	5
103	18
104	17
105	122
106	52
107	153
108	35
109	103
110	36
111	35
112	11
113	15
114	7
115	39
116	15
117	72
118	43
119	135
120	65
121	102
122	55
123	54
124	22
125	45
126	13
127	14
128	11
129	42
130	30
131	90
132	27
133	90
134	72
135	300
136	107
137	93
138	44
139	28
140	13
141	12
142	6
143	16
144	13
145	68
146	26
147	173
148	85
149	240
150	84
151	41
152	24
153	15
154	7
155	15
156	8
157	184
158	122
159	26
160	26
161	52
162	62
163	165
164	74
165	115
166	68
167	224
168	30
169	25
170	9
171	11
172	8
173	33
174	7
175	10
176	7
177	23
178	117
179	78
180	66
181	70
182	35
183	9
184	3
185	3
186	12
187	4
188	3
189	33
190	70
191	109
192	16
193	7
194	10
195	18
196	7
197	4
198	5
199	10
200	5
204	3
205	7
206	11
207	42
208	90
209	101
210	16
211	52
212	18
213	8
214	90
215	12
216	5
221	2
222	4
223	68
224	27
225	9
226	2
238	4
239	37
240	9
241	441
242	82
243	33
244	6
249	4
250	2
251	1
268	61
269	13
270	6
280	2
298	6
299	3
