Mass Spectrum: (3-Oxocyclopentyl)thioacetic acid, S-t-butyl ester
Formula: C11H18O2S
CAS: 68931-50-0
Molecular weight: 214
m/z	intensity
26	7
27	78
28	42
29	208
30	5
38	6
39	134
40	25
41	488
42	40
43	44
44	4
45	14
47	8
49	14
50	5
51	11
52	6
53	36
54	25
55	204
56	44
57	999
58	47
59	29
60	3
61	10
65	5
66	4
67	22
68	17
69	338
70	30
71	6
73	5
74	7
75	14
76	7
77	9
78	15
79	12
80	3
81	15
82	197
83	209
84	12
85	5
87	3
89	7
90	6
91	6
93	3
95	13
96	240
97	224
98	85
99	12
101	12
102	3
103	3
107	4
109	3
111	3
115	3
123	3
124	8
125	222
126	17
130	7
132	7
133	5
152	7
153	6
156	4
157	71
158	311
159	39
160	17
161	3
186	15
214	8
215	3
