Mass Spectrum: 2-(5-Bromopent-3-ynyloxy)tetrahydropyran
Formula: C10H15BrO2
CAS: 68931-45-3
Molecular weight: 246
m/z	intensity
25	4
26	60
27	238
28	137
29	212
30	11
31	189
36	3
37	20
38	38
39	263
40	62
41	281
42	34
43	142
44	19
45	10
48	2
49	20
50	103
51	190
52	612
53	439
54	193
55	560
56	256
57	156
58	8
59	6
60	3
61	8
62	13
63	25
64	10
65	358
66	150
67	146
68	13
69	86
70	5
71	5
73	8
77	11
78	2
79	22
80	4
81	51
82	103
83	369
84	310
85	999
86	64
87	5
91	9
92	2
93	14
94	3
95	14
96	3
97	6
98	1
99	3
100	5
101	284
102	17
103	3
104	0
105	4
106	1
107	7
108	1
109	25
110	4
111	35
112	3
113	1
114	0
115	56
116	4
117	3
118	0
119	4
120	9
121	6
122	9
123	15
124	2
125	2
126	0
127	0
128	0
129	1
130	4
131	10
132	68
133	31
134	67
135	26
136	2
137	10
138	1
139	4
140	1
141	1
142	0
143	2
144	8
145	16
146	11
147	19
148	5
149	6
150	1
151	1
152	0
153	3
154	0
155	0
156	0
157	0
158	0
159	1
160	0
161	4
162	2
163	5
164	2
165	1
166	1
167	8
168	1
171	0
172	0
173	0
174	0
175	5
176	0
177	5
178	0
179	3
180	1
181	0
182	0
183	0
184	0
185	1
186	1
187	0
188	2
189	1
190	2
191	3
192	1
193	3
194	0
195	0
196	0
197	0
198	0
199	0
200	0
201	0
202	0
203	0
204	0
205	1
206	0
207	2
208	0
209	1
210	0
211	0
213	0
214	0
215	0
216	0
217	1
218	0
219	1
220	0
244	0
245	3
246	0
247	3
248	0
