Mass Spectrum: 2-Cyclopentene-1-carboxylic acid, 1,2,3-trimethyl-
Formula: C9H14O2
CAS: 6894-69-5
Molecular weight: 154
m/z	intensity
26	5
27	81
28	12
29	37
30	1
31	2
36	0
37	2
38	8
39	116
40	19
41	114
42	9
43	98
44	5
45	35
46	3
47	1
48	1
49	1
50	18
51	48
52	20
53	71
54	8
55	113
56	6
57	3
58	0
59	2
60	1
61	2
62	6
63	15
64	4
65	38
66	10
67	222
68	18
69	30
70	2
71	1
72	0
73	0
74	2
75	3
76	1
77	78
78	17
79	64
80	8
81	102
82	7
83	2
84	0
85	1
86	0
87	0
88	0
89	2
90	1
91	82
92	12
93	86
94	33
95	18
96	1
97	4
98	1
101	0
102	0
103	2
104	0
105	7
106	1
107	24
108	24
109	999
110	119
111	15
112	1
119	0
121	2
122	0
123	0
124	0
125	7
126	1
137	0
138	0
139	10
140	0
151	0
152	0
153	0
154	159
155	22
156	1
