Mass Spectrum: 2-Propenal, 3-(2-pyridinylamino)-
Formula: C8H8N2O
CAS: 68970-82-1
Molecular weight: 148
m/z	intensity
37	10
38	36
39	103
40	40
41	37
42	26
43	11
50	33
51	189
52	167
53	36
54	6
55	20
63	9
64	19
65	47
66	34
67	87
68	11
70	17
74	11
76	9
77	5
78	473
79	213
80	16
91	10
92	27
93	16
94	46
95	7
105	44
118	27
119	999
120	121
121	7
131	26
147	25
148	249
149	26
