Mass Spectrum: 1-Propanamine, 2-methyl-N-(2-methylpropylidene)-
Formula: C8H17N
CAS: 6898-82-4
Molecular weight: 127
m/z	intensity
26	9
27	107
29	180
30	92
38	10
39	100
40	11
41	344
42	87
43	163
44	2
53	14
54	16
55	227
56	112
57	779
58	45
67	18
68	28
69	11
70	67
71	5
72	25
73	7
82	22
83	3
84	999
85	78
98	11
112	45
126	12
127	37
