Mass Spectrum: 1-Butanamine, N-ethylidene-
Formula: C6H13N
CAS: 6898-74-4
Molecular weight: 99
m/z	intensity
40	140
41	30
42	340
43	220
44	70
45	70
53	20
54	50
55	70
56	999
57	460
58	30
70	50
71	30
84	340
85	10
98	20
99	100
