Mass Spectrum: Methanamine, N-heptylidene-
Formula: C8H17N
CAS: 6898-71-1
Molecular weight: 127
m/z	intensity
26	20
27	150
28	90
29	100
30	40
39	80
40	20
41	140
42	650
43	70
44	50
54	20
55	40
56	70
57	999
58	50
67	20
68	30
69	10
70	290
71	30
84	60
98	20
112	60
127	20
