Mass Spectrum: Methanamine, N-butylidene-
Formula: C5H11N
CAS: 6898-69-7
Molecular weight: 85
m/z	intensity
40	70
41	80
42	999
43	50
44	20
54	30
55	30
56	50
57	460
58	20
68	20
70	140
84	40
