Mass Spectrum: 1,1'-Bicyclopropyl, 2,2,2',2'-tetramethyl-
Formula: C10H18
CAS: 68998-20-9
Molecular weight: 138
m/z	intensity
25	4
26	9
27	273
29	200
30	3
37	11
38	10
39	363
40	38
41	984
42	54
43	334
44	8
47	5
48	0
50	15
51	54
52	25
53	185
54	53
55	446
56	71
57	90
58	2
62	2
63	17
64	1
65	66
66	23
67	939
68	86
69	350
70	60
77	94
78	18
79	178
80	39
81	531
82	777
83	50
84	18
91	56
92	10
93	134
94	39
95	999
96	95
97	28
98	2
105	11
106	2
107	12
108	10
109	40
110	3
119	0
121	5
123	91
124	7
136	6
138	20
139	2
