Mass Spectrum: Glutamine
Formula: C5H10N2O3
CAS: 6899-04-3
Molecular weight: 146
m/z	intensity
41	240
42	53
43	47
44	115
45	92
46	14
51	7
52	11
53	9
54	34
55	61
56	171
57	29
58	7
59	31
60	15
61	1
66	11
67	2
68	8
69	13
70	7
71	9
72	16
73	37
74	20
75	5
77	8
78	4
81	1
82	8
83	49
84	999
85	60
86	7
87	9
88	7
91	2
97	4
98	2
99	1
100	20
101	74
102	7
111	1
114	1
115	2
120	2
121	2
124	1
126	1
128	4
129	96
130	9
