Mass Spectrum: Trifluoromethylthiocyanate
Formula: C2F3NS
CAS: 690-24-4
Molecular weight: 127
m/z	intensity
26	34
31	45
46	64
50	43
51	65
58	54
69	999
70	11
101	319
102	11
108	76
109	7
127	169
128	11
