Mass Spectrum: Oxazol-5(4H)-one, 4-[1-(4-nitrophenyl)ethylideno]-2-phenyl-, (Z)
Formula: C17H12N2O4
CAS: 69015-76-5
Molecular weight: 308
m/z	intensity
33	0
34	0
36	0
37	1
38	7
39	28
40	4
41	5
42	2
43	5
44	8
45	1
46	2
48	0
50	55
51	150
52	17
53	5
54	1
55	2
56	1
57	2
58	1
59	0
60	0
61	2
62	9
63	22
64	6
65	6
66	1
67	0
68	0
69	1
70	1
71	1
73	1
74	15
75	24
76	55
77	503
78	38
79	1
80	0
81	0
82	0
83	0
84	1
85	0
86	2
87	4
88	5
89	11
90	7
91	2
92	0
93	0
95	0
96	0
97	0
98	1
99	1
100	2
101	11
102	29
103	19
105	999
106	75
107	4
108	0
109	0
110	0
111	0
112	0
113	2
114	3
115	4
116	4
117	9
118	1
119	0
120	0
121	0
122	0
123	0
125	0
126	0
127	2
128	15
129	9
130	1
131	1
132	0
139	0
140	0
142	0
143	0
144	0
145	4
146	0
147	0
148	0
149	0
150	2
151	0
152	1
153	0
154	2
155	0
156	0
157	1
158	6
159	1
160	0
161	0
163	0
164	0
165	1
166	0
167	1
168	0
171	1
174	0
175	2
176	1
177	0
178	0
179	0
189	0
190	0
191	0
202	0
203	1
204	0
205	0
216	0
217	0
218	0
231	0
232	0
233	0
234	0
239	0
261	0
262	0
263	0
278	3
279	0
280	0
283	0
292	0
306	0
308	120
309	23
310	3
311	0
