Mass Spectrum: Geijerene
Formula: C12H18
CAS: 6902-73-4
Molecular weight: 162
m/z	intensity
27	23
39	59
40	10
41	67
50	9
51	28
52	18
53	51
54	13
55	33
58	10
63	13
65	52
66	25
67	34
68	12
77	172
78	46
79	999
80	71
81	21
91	135
92	27
93	122
94	567
95	36
103	12
105	69
106	57
107	29
115	17
116	8
117	16
119	55
120	55
121	20
131	7
133	30
134	20
147	142
148	19
162	16
163	2
