Mass Spectrum: [1,3]Dioxepino[5,6-c]pyridine, 1,5-dihydro-3,3,8-trimethyl-9-(2-propynyloxy)-
Formula: C14H17NO3
CAS: 69022-74-8
Molecular weight: 247
m/z	intensity
38	200
39	999
41	400
43	760
50	180
51	670
52	300
53	410
65	210
67	190
77	140
80	130
81	170
91	150
92	150
94	290
106	190
120	330
122	350
132	120
135	140
150	500
160	260
172	690
173	100
174	100
188	170
232	100
247	910
248	230
