Mass Spectrum: Pyridine, 2-methyl-3-(2-propenyloxy)-
Formula: C9H11NO
CAS: 69022-75-9
Molecular weight: 149
m/z	intensity
39	990
41	999
44	190
53	320
65	180
67	100
79	370
80	880
81	150
93	190
106	120
108	100
109	180
120	220
121	160
134	310
148	570
149	810
