Mass Spectrum: 1,1-Cyclopropanedicarbonitrile, 2,3-dimethyl-, cis-
Formula: C7H8N2
CAS: 6904-11-6
Molecular weight: 120
m/z	intensity
25	1
26	215
27	704
28	621
29	510
30	11
31	2
32	3
36	5
37	83
38	170
39	403
40	114
41	489
42	999
43	35
44	10
45	0
47	1
48	2
49	16
50	86
51	180
52	222
53	110
54	85
55	252
56	48
57	2
58	2
59	0
60	1
61	8
62	26
63	65
64	123
65	97
66	311
67	141
68	24
69	8
70	0
71	0
72	1
73	0
74	4
75	28
76	60
77	94
78	418
79	199
80	89
81	6
83	0
86	1
87	1
88	3
89	8
90	5
91	23
92	222
93	455
94	37
95	1
100	1
101	1
102	1
103	11
104	8
105	579
106	43
107	1
117	1
118	8
119	267
120	62
121	6
