Mass Spectrum: 1,1-Cyclopropanedicarbonitrile, 2,3-dimethyl-, trans-
Formula: C7H8N2
CAS: 6904-10-5
Molecular weight: 120
m/z	intensity
26	231
27	743
28	612
29	530
30	12
36	5
37	90
38	183
39	405
40	118
41	485
42	999
43	22
44	16
46	1
47	0
48	3
49	18
50	89
51	179
52	215
53	117
54	87
55	249
56	60
57	3
58	3
59	8
60	2
61	7
62	29
63	66
64	138
65	101
66	316
67	151
68	25
69	9
71	1
73	1
75	25
76	60
77	99
78	399
79	211
80	93
81	4
86	0
87	3
88	3
89	7
90	3
91	22
92	228
93	446
94	35
95	1
100	1
101	1
102	1
103	12
104	8
105	596
106	42
111	0
118	8
119	258
120	67
121	5
