Mass Spectrum: 3-Buten-2-one, 4-(5-hydroxy-2,6,6-trimethyl-1-cyclohexen-1-yl)-
Formula: C13H20O2
CAS: 69050-59-5
Molecular weight: 208
m/z	intensity
43	999
55	156
69	85
71	63
77	70
79	77
91	96
93	89
95	59
105	164
107	74
109	82
119	81
121	271
133	58
135	57
137	42
147	117
149	181
151	44
157	30
165	101
175	196
193	402
208	57
