Mass Spectrum: Benzene, 1,4-bis(2-bromo-1-methylethyl)-
Formula: C12H16Br2
CAS: 69056-65-1
Molecular weight: 318
m/z	intensity
25	3
26	56
27	326
29	66
30	2
35	1
37	19
38	57
39	414
40	30
41	444
42	16
43	21
45	13
46	8
49	4
50	125
51	259
52	77
53	57
54	1
55	10
56	2
57	23
59	2
61	19
62	40
63	184
64	87
65	225
66	21
67	10
70	15
71	9
72	4
73	3
74	40
75	33
76	67
77	258
78	205
79	94
80	30
81	13
82	22
83	2
85	3
86	11
87	22
88	6
89	89
90	35
91	999
92	152
93	156
94	7
95	129
96	2
97	2
98	4
99	2
100	2
101	11
102	55
103	128
104	82
105	245
106	49
107	8
108	3
109	7
110	1
111	2
113	5
114	8
115	334
116	131
117	403
118	74
119	49
120	57
121	91
122	5
123	74
124	3
126	10
127	40
128	138
129	86
130	44
131	265
132	125
133	180
134	48
135	2
139	8
141	21
142	13
143	15
144	10
145	114
146	22
147	12
148	5
153	2
154	1
156	1
157	1
159	13
160	4
161	5
162	25
163	5
169	3
171	3
179	1
183	8
184	0
185	8
186	3
190	0
197	12
198	1
199	4
200	3
211	39
212	2
213	34
214	5
223	1
225	416
226	52
227	342
228	46
229	3
238	2
239	43
240	11
241	37
242	7
243	1
255	2
263	0
264	0
273	0
289	0
291	1
300	1
304	1
305	3
306	0
308	1
310	0
318	25
319	4
320	38
321	7
322	21
326	2
