Mass Spectrum: 1,3,4-Metheno-perhydrocyclobuta[c,d]pentalene-2-pentanoic acid, 1,1a,3,3a,4,5,5,5a,5b-nonachloro-2-hydroxy-.gamma.-oxo-, ethyl ester
Formula: C17H13Cl9O4
CAS: 69069-45-0
Molecular weight: 596
m/z	intensity
45	245
46	2
47	12
48	0
49	16
50	1
51	13
52	0
53	65
55	732
56	213
57	75
58	8
59	8
60	7
61	6
62	0
63	30
64	1
65	8
66	1
67	4
68	0
69	63
70	33
71	50
73	270
74	136
75	46
76	3
77	6
78	0
79	3
80	0
81	10
82	4
83	29
84	22
85	15
86	6
87	12
88	1
89	6
90	0
91	3
92	0
93	1
94	6
95	5
96	8
97	31
98	88
99	166
101	999
102	940
103	60
104	6
105	5
106	4
107	15
108	8
109	13
110	3
111	6
112	1
113	3
114	3
115	5
116	0
117	13
118	4
119	43
120	3
121	27
122	5
123	7
124	2
125	26
126	0
127	5
129	857
130	54
131	17
132	7
133	20
134	5
135	8
136	2
137	2
138	1
139	1
140	0
141	20
142	3
143	28
144	66
145	22
146	4
147	33
148	9
149	35
150	6
151	6
152	2
153	6
154	4
155	14
156	7
157	12
158	6
159	10
161	95
162	32
163	53
164	25
165	11
166	7
167	14
168	5
169	10
170	3
171	5
172	2
173	2
174	3
175	3
176	2
177	4
178	5
179	19
180	23
181	29
182	37
183	92
184	17
185	88
186	10
187	26
188	7
189	18
190	5
191	17
192	10
193	12
194	11
195	41
196	22
197	41
198	17
199	23
200	12
201	74
202	13
203	90
204	15
205	45
206	7
207	15
208	3
209	6
210	2
211	2
212	2
213	6
214	12
215	20
216	27
217	46
218	31
219	42
220	22
221	20
222	11
223	9
225	29
226	8
227	26
228	24
229	17
230	21
231	17
232	11
233	17
234	5
235	107
236	19
237	160
238	31
239	100
240	21
241	39
242	11
243	11
244	8
245	4
246	4
247	3
248	9
249	40
250	13
251	60
252	20
253	28
254	11
255	10
256	6
257	12
258	4
259	29
260	12
261	28
262	19
263	20
264	21
265	13
266	14
267	8
268	5
269	5
270	19
271	7
272	53
273	6
274	50
275	11
276	20
277	11
278	10
279	8
280	8
281	4
282	8
283	9
284	30
285	27
286	43
287	30
288	28
289	18
290	14
291	18
292	10
293	18
294	8
295	10
296	5
297	7
298	16
299	8
300	21
301	9
302	14
303	6
304	5
305	3
306	3
307	2
308	3
309	6
310	4
311	9
312	14
313	10
314	19
315	8
316	14
317	3
318	20
319	66
320	25
321	119
322	26
323	94
324	17
325	46
326	10
327	23
328	8
329	16
330	5
331	9
332	5
333	5
334	7
335	7
336	5
337	7
338	3
339	3
340	1
341	1
342	0
343	1
344	1
345	6
346	10
347	21
348	26
349	31
350	31
351	24
352	21
353	20
354	14
355	22
356	12
357	19
358	9
359	11
360	6
361	11
362	5
363	14
364	6
365	11
366	5
367	6
368	3
369	4
370	2
371	3
372	1
373	1
374	0
375	0
376	0
377	0
378	0
379	2
380	1
381	8
382	8
383	12
384	14
385	11
386	12
387	8
388	7
389	6
390	4
391	7
392	3
393	5
394	2
395	10
396	1
397	21
399	24
400	3
401	14
402	2
403	6
404	1
405	2
406	0
407	1
408	0
409	1
410	0
411	1
412	0
413	0
414	0
415	1
416	0
417	13
419	26
421	29
422	2
423	17
424	4
425	11
426	2
427	9
428	3
429	4
430	1
431	2
432	0
433	2
434	0
435	2
436	0
437	2
438	0
439	2
440	0
441	0
443	0
444	0
445	0
446	0
447	0
448	0
449	0
450	0
451	3
452	0
453	6
454	1
455	9
456	0
457	7
458	1
459	4
460	0
461	6
462	1
463	7
464	1
465	5
466	0
467	2
468	0
469	1
470	0
471	1
472	0
473	3
474	0
475	3
476	1
477	3
478	0
479	9
480	0
481	15
482	0
483	12
484	1
485	5
486	0
487	3
488	0
489	6
490	1
491	10
492	0
493	6
495	22
496	2
497	57
499	76
501	60
503	36
505	13
507	85
509	186
511	201
513	129
515	43
517	25
519	20
521	13
523	23
525	56
527	75
529	61
531	31
533	11
534	1
535	2
536	0
537	0
538	0
539	0
541	0
542	0
543	2
544	1
545	6
546	3
547	7
548	3
549	5
551	34
552	16
553	89
555	125
557	99
559	52
561	35
563	54
565	56
567	38
568	4
569	14
570	1
571	2
572	0
580	0
581	0
582	0
583	0
584	0
586	0
596	0
597	0
598	2
599	0
600	5
601	2
602	3
603	1
604	1
605	0
