Mass Spectrum: 2-Oxiran-2-ylpyridine 1-oxide
Formula: C7H7NO2
CAS: 69062-54-0
Molecular weight: 137
m/z	intensity
25	4
26	45
27	154
28	66
29	99
30	38
31	15
35	2
36	3
37	48
38	119
39	287
40	38
41	32
42	16
43	20
44	5
45	3
46	5
48	3
49	26
50	257
51	798
52	641
53	161
54	15
55	9
56	2
57	5
58	2
60	5
61	28
62	57
63	137
64	105
65	389
66	80
67	19
68	7
69	4
73	9
74	42
75	38
76	34
77	70
78	999
79	595
80	112
81	10
82	2
83	3
84	2
85	3
86	4
87	3
88	4
89	5
90	12
91	58
92	745
93	137
94	9
95	16
96	4
97	2
102	2
103	3
104	15
105	23
106	24
107	9
108	157
109	37
110	4
119	29
120	769
121	84
122	8
136	41
137	583
138	78
139	7
