Mass Spectrum: Z-2-Dodecenol
Formula: C12H24O
CAS: 69064-36-4
Molecular weight: 184
m/z	intensity
27	185
29	381
31	51
39	190
41	688
42	188
43	581
44	216
53	104
54	363
55	523
56	206
57	999
67	424
68	307
69	289
70	145
71	147
81	261
82	332
83	193
95	150
96	168
97	89
108	63
109	53
138	41
166	41
