Mass Spectrum: Glyoxylamide, ethoxy-N-(2'-iodophenyl)-
Formula: C10H10INO3
CAS: 69066-03-1
Molecular weight: 319
m/z	intensity
27	187
28	21
29	924
30	21
31	6
36	0
37	22
38	59
39	97
40	15
41	33
42	3
43	10
44	5
45	28
46	2
47	0
49	2
50	85
51	22
52	61
53	4
54	1
55	0
56	1
57	3
61	9
62	34
63	168
64	234
65	134
66	11
67	0
73	7
74	21
75	36
76	202
77	37
78	8
79	3
80	1
86	0
87	2
88	7
89	9
90	166
91	479
92	291
93	31
94	2
99	0
102	27
103	5
104	17
105	41
106	4
107	0
108	0
109	0
117	4
118	18
119	999
120	124
121	8
123	3
127	16
128	6
132	4
133	3
135	10
136	11
137	0
141	0
145	1
146	340
147	35
148	5
149	0
152	1
153	0
163	1
164	527
165	50
166	5
176	1
177	1
191	15
192	952
193	113
194	12
195	0
201	0
202	0
203	148
204	10
205	0
216	2
217	0
218	189
219	128
220	9
228	1
229	1
230	3
231	6
232	65
233	5
245	205
246	763
247	69
248	5
272	4
274	1
319	933
320	112
321	11
322	0
