Mass Spectrum: Disulfide, methyl 1-methyl-1-(methylthio)propyl
Formula: C6H14S3
CAS: 69078-85-9
Molecular weight: 182
m/z	intensity
45	110
55	860
59	170
61	100
79	50
87	150
103	999
135	30
