Mass Spectrum: Methanamine, N-(1-phenylethylidene)-
Formula: C9H11N
CAS: 6907-71-7
Molecular weight: 133
m/z	intensity
26	5
27	21
28	28
29	11
30	5
36	1
37	4
38	10
39	38
40	5
41	9
42	9
43	3
49	3
50	56
51	133
52	24
53	6
54	21
55	23
56	251
57	11
58	1
59	6
61	4
62	14
63	34
64	9
65	33
66	5
73	4
74	23
75	25
76	49
77	285
78	39
79	4
80	0
85	1
86	3
87	4
88	3
89	22
90	14
91	131
92	12
93	1
98	2
99	2
100	1
101	3
102	24
103	78
104	14
105	22
106	2
115	4
116	18
117	28
118	999
119	100
120	10
121	1
130	6
131	22
132	128
133	310
134	35
135	1
