Mass Spectrum: Disulfide, bis[1-(methylthio)ethyl]
Formula: C6H14S4
CAS: 69078-77-9
Molecular weight: 214
m/z	intensity
41	100
45	90
47	100
59	140
60	50
75	999
76	40
135	40
214	10
