Mass Spectrum: Disulfide, methyl 2-methyl-1-(methylthio)propyl
Formula: C6H14S3
CAS: 69078-81-5
Molecular weight: 182
m/z	intensity
39	120
45	250
47	90
55	999
61	120
79	80
87	80
103	770
182	10
