Mass Spectrum: Disulfide, propyl 1-(propylthio)ethyl
Formula: C8H18S3
CAS: 69078-86-0
Molecular weight: 210
m/z	intensity
41	200
43	430
45	80
59	120
60	80
61	490
75	40
103	999
210	10
