Mass Spectrum: 5-Caranol, trans,trans-(+)-
Formula: C10H18O
CAS: 6909-22-4
Molecular weight: 154
m/z	intensity
15	33
26	8
27	283
28	42
29	283
31	50
38	17
39	350
40	67
41	808
42	83
43	733
44	17
45	17
50	17
51	83
52	42
53	200
54	67
55	875
56	208
57	200
58	42
59	133
63	33
64	17
65	92
66	50
67	367
68	133
69	667
70	167
71	208
72	67
73	8
75	8
77	225
78	58
79	392
80	92
81	358
82	150
83	342
84	275
85	225
86	17
91	217
92	125
93	717
94	125
95	600
96	200
97	258
98	183
99	33
103	17
105	83
106	33
107	217
108	67
109	250
110	308
111	999
112	225
113	17
117	8
119	50
120	33
121	658
122	67
123	58
125	42
126	17
134	33
135	17
136	467
137	58
139	267
140	33
152	8
153	8
154	258
155	25
