Mass Spectrum: Carane, 4,5-epoxy-, trans
Formula: C10H16O
CAS: 6909-20-2
Molecular weight: 152
m/z	intensity
26	25
27	361
28	56
29	175
30	4
31	10
36	0
37	7
38	25
39	427
40	71
41	687
42	74
43	292
44	8
45	11
46	3
47	2
48	1
49	1
50	30
51	92
52	42
53	233
54	76
55	302
56	109
57	56
58	16
59	12
60	4
61	4
62	10
63	31
64	9
65	99
66	45
67	603
68	124
69	178
70	38
71	24
72	2
73	1
74	5
75	6
76	3
77	158
78	35
79	283
80	61
81	999
82	281
83	94
84	81
85	12
86	1
87	1
88	0
89	6
90	3
91	180
92	50
93	164
94	43
95	424
96	160
97	47
98	5
99	0
101	0
102	2
103	13
104	6
105	57
106	13
107	53
108	35
109	332
110	284
111	30
112	1
115	11
116	2
117	17
118	4
119	163
120	18
121	64
122	11
123	339
124	55
125	4
128	1
129	1
130	1
131	1
132	4
133	4
134	61
135	17
136	11
137	118
138	11
151	4
152	245
153	25
154	1
