Mass Spectrum: Tris(trifluoromethylthio)methane
Formula: C4HF9S3
CAS: 691-69-0
Molecular weight: 316
m/z	intensity
31	28
32	85
44	21
45	999
46	19
47	42
50	16
63	43
64	14
69	863
70	8
76	84
77	80
78	7
79	7
82	36
101	19
109	20
111	4
133	13
145	12
146	73
147	4
148	6
215	343
216	15
217	28
247	2
316	2
