Mass Spectrum: Carbamothioic acid, O-isopropyl ester
Formula: C4H9NOS
CAS: 691-61-2
Molecular weight: 119
m/z	intensity
27	320
28	130
29	25
39	200
40	49
41	510
42	210
43	560
44	870
45	220
58	54
59	190
60	350
61	160
77	770
78	520
79	49
119	999
120	45
121	55
