Mass Spectrum: Thiophene, 2-(hexylthio)-
Formula: C10H16S2
CAS: 6911-41-7
Molecular weight: 200
m/z	intensity
13	0
14	0
15	13
16	0
24	0
25	0
26	8
27	196
28	28
29	233
30	5
31	0
32	2
33	0
34	1
35	0
36	0
37	2
38	24
39	213
40	20
41	309
42	27
43	902
44	30
45	174
46	10
47	14
48	0
49	1
50	5
51	10
52	4
53	26
54	4
55	79
56	13
57	91
58	29
59	11
60	4
61	2
62	0
63	0
64	2
65	4
66	1
67	5
68	1
69	42
70	16
71	298
72	21
73	15
74	2
75	0
76	5
77	3
78	2
79	1
80	0
81	10
82	24
83	13
84	17
85	51
86	4
87	8
88	4
89	2
90	2
91	11
92	0
93	0
94	0
95	1
96	1
97	17
98	1
99	1
100	0
101	1
102	0
103	1
104	0
105	0
106	0
107	0
108	0
109	1
110	2
111	2
112	0
113	0
114	5
115	98
116	999
117	70
118	82
119	5
120	2
121	0
122	0
123	1
124	0
125	1
126	0
127	1
128	0
129	35
130	3
131	3
132	0
133	0
134	0
135	0
136	0
137	0
138	0
139	1
140	0
141	1
142	0
143	2
144	0
145	0
146	0
147	0
149	0
151	0
152	0
153	0
154	0
155	0
156	0
157	1
158	0
159	0
167	0
168	0
169	0
170	0
171	0
172	0
173	0
184	0
185	0
186	0
198	0
199	1
200	255
201	31
202	23
203	2
204	0
