Mass Spectrum: 5.beta.-Coprostan-16,22-epoxy-3.alpha.,25,26-triol
Formula: C27H46O4
CAS: 6911-23-5
Molecular weight: 434
m/z	intensity
41	367
43	999
45	76
53	79
55	665
57	368
58	46
59	35
65	32
67	416
69	341
71	156
72	88
73	19
75	155
77	112
79	312
81	493
83	363
84	67
85	18
86	399
87	24
91	251
93	483
95	586
96	98
97	124
98	12
99	27
101	113
102	9
103	7
105	324
107	602
108	68
109	311
110	106
111	145
113	95
114	32
115	141
117	84
119	200
120	48
121	254
122	185
123	98
124	109
125	25
126	8
127	31
128	15
129	64
131	137
133	190
135	220
136	35
137	34
138	9
142	348
143	37
145	163
147	302
149	150
151	38
153	5
155	40
156	6
157	43
160	761
161	196
162	50
163	47
164	14
165	40
166	3
167	17
169	31
171	32
173	100
175	94
176	44
177	29
178	8
180	2
181	5
182	3
183	7
184	4
185	43
186	16
187	81
188	7
189	38
190	10
191	2
193	5
197	3
199	43
200	4
201	56
202	16
203	21
211	2
213	34
214	29
215	93
216	37
217	35
218	6
227	60
228	12
229	41
230	31
231	13
233	6
239	19
241	31
242	16
243	14
245	6
248	13
253	15
254	5
255	482
256	119
257	130
258	72
259	26
269	81
270	28
271	14
272	19
273	575
274	135
275	34
283	2
284	17
285	39
286	24
287	21
288	28
289	3
295	12
309	2
313	22
314	2
324	10
327	11
328	8
330	19
331	116
332	23
342	72
344	729
345	182
346	25
357	3
358	6
359	48
360	64
361	13
367	21
368	3
385	11
387	2
398	14
399	6
401	9
403	187
404	55
405	10
416	20
417	20
419	15
433	8
434	22
435	6
436	3
