Mass Spectrum: Methyl 3-methoxydecanoate
Formula: C12H24O3
CAS: 69121-70-6
Molecular weight: 216
m/z	intensity
27	35
29	80
31	13
32	26
39	40
41	161
42	28
43	114
45	107
53	35
54	19
55	175
56	31
57	44
58	80
59	114
67	44
68	45
69	344
70	14
71	104
72	32
74	35
75	999
76	24
77	9
78	18
79	27
81	47
82	27
85	20
87	42
88	9
91	17
96	22
97	13
101	30
110	35
111	47
113	16
115	9
117	419
118	25
124	11
127	79
128	24
129	23
135	9
141	103
143	131
144	11
152	18
153	28
184	19
186	28
201	105
202	14
