Mass Spectrum: 1-Benzyl-3-pyrroline
Formula: C11H13N
CAS: 6913-92-4
Molecular weight: 159
m/z	intensity
15	2
26	3
27	22
28	15
29	10
30	1
37	2
38	7
39	67
40	9
41	42
42	15
46	1
50	10
51	27
52	8
53	13
54	10
55	30
56	0
59	0
62	6
63	27
64	10
65	134
66	10
67	15
68	341
69	16
70	2
74	3
75	3
76	5
77	26
78	16
79	6
80	23
81	10
82	62
83	3
84	2
86	0
87	0
89	35
90	17
91	999
92	122
93	6
102	0
103	3
104	10
105	1
115	3
116	4
117	3
118	1
127	2
128	5
129	4
130	4
131	5
132	0
154	2
156	8
157	38
158	120
159	145
160	18
161	2
