Mass Spectrum: 2-Sulfanylidene-1,3-thiazolidin-5-one
Formula: C3H3NOS2
CAS: 6913-23-1
Molecular weight: 133
m/z	intensity
33	37
34	22
35	1
36	2
38	12
39	15
40	73
41	72
42	339
43	63
44	141
45	431
46	999
47	78
48	41
49	2
51	2
52	1
54	4
55	9
56	11
57	26
58	77
59	319
60	168
61	17
62	5
64	226
65	5
66	13
67	1
69	3
70	10
71	6
72	7
74	201
75	9
76	66
77	7
78	35
79	0
80	2
82	1
83	3
84	3
85	0
86	24
88	2
90	13
91	30
92	2
93	2
105	27
106	6
107	2
133	537
134	31
135	48
136	1
