Mass Spectrum: 3-Ethyl-2-[2-(3-ethyl-5-oxo-2-thioxo-4-thiazolidinylidene)ethylidene]benzothiazoline
Formula: C16H16N2OS3
CAS: 6913-28-6
Molecular weight: 348
m/z	intensity
33	16
34	26
39	189
40	93
41	40
42	30
45	418
47	15
50	55
51	54
52	36
53	29
54	27
55	14
58	346
60	78
61	16
63	118
65	131
66	11
69	999
70	115
71	125
72	50
75	117
77	63
78	13
79	8
81	44
82	59
85	411
86	89
87	47
88	17
89	34
90	19
91	18
93	21
94	12
96	80
97	22
98	10
99	10
101	46
102	90
104	12
106	6
108	103
109	117
110	11
111	8
114	29
116	309
119	7
120	8
121	11
122	7
127	9
128	22
129	8
133	24
134	22
135	44
136	77
137	7
140	12
145	25
146	19
147	11
148	27
149	65
150	14
158	8
160	192
161	35
162	21
167	8
170	9
171	13
173	508
174	120
175	43
176	9
178	31
185	14
186	68
187	14
188	53
189	16
198	12
199	22
200	78
201	16
202	13
204	603
205	78
206	52
207	7
218	147
219	21
220	12
230	7
231	9
233	785
234	99
235	71
236	8
348	158
349	32
350	20
