Mass Spectrum: Cholest-8(14)-ene-3,7,15-triol, triacetate, (3.beta.,5.alpha.,7.alpha.,15.alpha.)-
Formula: C33H52O6
CAS: 69140-10-9
Molecular weight: 544
m/z	intensity
8	1
13	2
14	12
15	106
16	4
17	3
18	7
20	2
25	3
26	4
27	18
28	66
29	74
30	7
31	27
32	10
33	19
37	1
39	0
40	1
41	60
42	24
43	956
44	73
45	663
46	3
47	9
49	4
53	10
55	30
56	12
57	17
58	150
59	72
61	14
65	3
67	5
68	9
69	45
70	2
71	206
72	25
73	22
74	138
75	96
76	5
81	4
83	16
84	10
85	145
86	7
87	205
88	12
89	41
95	4
96	2
97	25
99	184
100	30
101	507
102	67
103	15
104	2
105	3
109	3
111	52
112	6
113	33
114	10
115	43
116	23
117	999
118	79
119	51
120	4
125	11
126	6
127	118
128	6
129	831
130	47
131	29
132	2
133	3
136	1
139	5
140	3
141	15
142	3
143	82
144	3
145	2
147	4
148	2
155	2
157	39
158	2
159	137
160	10
161	470
162	37
170	1
171	25
173	80
174	3
175	2
185	1
189	9
191	8
196	1
201	26
202	3
203	57
204	5
215	2
217	32
231	6
233	183
234	21
235	3
237	1
245	10
277	32
318	4
