Mass Spectrum: Mannosamine
Formula: C6H13NO5
CAS: 6915-39-5
Molecular weight: 179
m/z	intensity
41	176
42	272
43	484
44	288
45	363
46	66
47	30
48	8
49	5
50	28
51	28
52	41
53	39
54	55
55	163
56	205
57	153
58	202
59	999
60	294
61	110
62	6
63	6
64	9
65	10
66	14
67	24
68	41
69	100
70	68
71	112
72	905
73	186
74	62
75	18
76	38
77	14
78	29
79	53
80	28
81	32
82	27
83	39
84	61
85	47
86	29
87	24
88	98
89	15
90	5
91	13
92	7
93	18
94	66
95	32
96	27
97	53
98	36
99	19
100	192
101	49
102	28
103	17
104	5
105	9
106	68
107	42
108	12
109	14
110	17
111	17
112	18
113	13
114	20
115	26
116	10
117	5
118	15
119	15
120	7
121	10
122	10
123	85
124	28
125	14
126	13
127	11
128	6
129	18
130	30
131	19
132	12
133	8
134	5
135	28
136	11
137	11
138	7
139	7
140	6
141	5
142	4
143	8
144	8
145	4
146	4
147	11
148	28
149	17
150	7
151	5
161	8
162	20
163	4
164	3
177	2
178	2
179	10
180	2
