Mass Spectrum: 3,3,7,7,11-Pentamethyl-4,8-dioxa-11-dodecen-1-ol
Formula: C15H30O3
CAS: 69161-48-4
Molecular weight: 258
m/z	intensity
31	60
39	60
40	30
41	320
42	40
43	130
44	20
45	50
53	40
55	80
56	90
57	90
58	20
59	60
67	50
68	60
69	999
70	120
71	180
81	50
85	80
86	80
87	220
88	20
89	70
99	200
103	20
105	110
115	60
117	40
127	50
137	30
139	60
155	70
173	50
258	15
