Mass Spectrum: 2,5,5,11-Tetramethyl-8-isopropyl-4,7,9-trioxa-1,11-dodecadiene
Formula: C16H30O3
CAS: 69161-45-1
Molecular weight: 270
m/z	intensity
39	110
40	40
41	140
42	60
43	100
44	40
45	30
53	70
54	50
55	999
56	130
57	170
58	40
59	50
67	40
69	60
70	120
71	160
72	100
73	60
81	70
83	40
85	50
94	40
95	40
96	50
97	30
99	35
101	120
111	60
113	40
115	270
116	50
125	50
126	60
127	70
142	30
143	20
155	30
227	20
270	1
