Mass Spectrum: Pentane-1,2,3,4,5-pentaol
Formula: C5H12O5
CAS: 6917-36-8
Molecular weight: 152
m/z	intensity
26	21
27	177
28	354
29	246
30	35
31	553
33	8
38	4
39	37
40	8
41	42
42	143
43	824
44	751
45	571
46	34
47	36
49	9
51	3
53	7
54	12
55	205
56	638
57	257
58	34
59	22
60	252
61	999
62	86
63	13
68	3
69	14
70	7
71	60
72	51
73	709
74	842
75	54
76	6
77	4
85	118
86	14
87	5
88	24
89	11
90	15
91	647
92	28
93	6
98	4
103	494
104	32
105	9
116	3
121	18
