Mass Spectrum: N,N-Dimethyl-1,7-octadien-3-amine
Formula: C10H19N
CAS: 69196-06-1
Molecular weight: 153
m/z	intensity
39	150
41	210
42	270
43	80
44	320
45	440
46	90
53	50
55	100
58	999
67	170
71	90
82	100
84	520
85	60
97	80
98	150
110	190
152	120
153	80
