Mass Spectrum: Bis(N-methoxy-N-methylamino)methane
Formula: C5H14N2O2
CAS: 6919-46-6
Molecular weight: 134
m/z	intensity
39	23
40	8
42	211
43	81
44	8
61	34
74	999
75	39
76	3
134	4
