Mass Spectrum: N-Carbethoxy-N-methoxymethylamine
Formula: C5H11NO3
CAS: 6919-62-6
Molecular weight: 133
m/z	intensity
28	181
29	999
30	56
31	26
42	33
45	48
46	278
47	13
58	19
59	19
60	70
61	285
62	13
74	178
75	11
88	30
133	63
134	3
