Mass Spectrum: Methyl-methoxy-hydroxymethyl-amine
Formula: C3H9NO2
CAS: 6919-52-4
Molecular weight: 91
m/z	intensity
30	236
43	361
44	29
45	21
60	65
61	110
74	999
75	244
91	36
