Mass Spectrum: 2-Butyne, 1,1,1,4,4,4-hexafluoro-
Formula: C4F6
CAS: 692-50-2
Molecular weight: 162
m/z	intensity
19	25
24	30
25	0
31	399
32	4
36	43
37	1
43	10
44	0
48	1
49	0
50	64
51	0
55	121
56	4
62	21
63	0
67	1
68	0
69	388
70	4
74	189
75	6
81	0
86	5
87	0
93	999
94	32
95	0
100	0
105	5
106	0
112	122
113	3
124	135
125	5
131	3
132	0
143	767
144	32
145	0
162	416
163	16
164	0
