Mass Spectrum: 2,4-Hexadienedioic acid, dimethyl ester, (E,Z)-
Formula: C8H10O4
CAS: 692-92-2
Molecular weight: 170
m/z	intensity
50	98
51	205
52	161
53	98
54	76
55	71
56	18
57	22
59	188
65	22
67	18
68	94
69	18
79	196
80	80
81	18
83	36
85	18
91	18
95	27
96	18
107	45
108	27
110	18
111	999
112	71
123	116
139	170
140	18
155	36
170	36
171	3
