Mass Spectrum: Carbamothioic acid, O-butyl ester
Formula: C5H11NOS
CAS: 692-99-9
Molecular weight: 133
m/z	intensity
27	160
28	120
29	240
31	35
39	95
41	540
42	30
43	44
44	330
55	100
56	240
57	130
60	230
61	100
62	30
77	150
78	999
79	35
80	48
133	220
134	15
135	10
