Mass Spectrum: Acetamide, N-2-propenyl-
Formula: C5H9NO
CAS: 692-33-1
Molecular weight: 99
m/z	intensity
13	1
14	6
15	44
25	1
26	13
27	32
28	134
29	35
30	339
31	9
37	5
38	11
39	88
40	14
41	215
42	60
43	622
44	26
45	4
50	1
51	4
52	9
53	4
54	35
55	17
56	804
57	999
58	51
59	4
60	10
68	1
69	1
70	3
71	4
72	10
73	3
80	2
81	1
82	3
84	61
85	3
98	9
99	53
100	4
101	1
