Mass Spectrum: Buformin
Formula: C6H15N5
CAS: 692-13-7
Molecular weight: 157
m/z	intensity
26	20
27	140
29	260
30	630
31	40
34	20
39	60
41	190
42	180
43	999
44	300
45	30
53	20
54	10
55	170
56	110
57	70
58	60
59	220
60	230
68	150
69	50
70	30
71	10
72	290
73	70
83	30
84	40
85	690
86	310
87	20
97	70
98	50
99	20
100	30
101	350
102	20
111	30
112	30
114	690
115	260
116	20
124	20
125	20
126	10
128	160
129	40
139	20
140	20
141	20
142	30
156	10
157	290
158	30
