Mass Spectrum: 2,4-Hexadienedioic acid, dimethyl ester, (Z,Z)-
Formula: C8H10O4
CAS: 692-91-1
Molecular weight: 170
m/z	intensity
41	44
50	55
51	143
52	110
53	44
54	44
55	33
59	88
68	66
79	109
80	44
83	22
95	33
107	22
108	22
111	999
112	76
123	143
139	110
155	30
170	77
