Mass Spectrum: 1,1,2-Trimethyl-3,8,9-trioxa-bicyclo[4.2.1]nonane
Formula: C9H16O3
CAS: 69213-29-2
Molecular weight: 172
m/z	intensity
39	90
40	80
41	119
42	68
43	550
44	149
45	59
53	9
54	148
55	60
56	39
57	976
58	999
59	80
60	90
61	9
69	19
71	59
72	79
73	49
84	10
85	10
86	59
87	29
88	299
89	30
97	50
98	9
99	9
101	10
114	120
115	10
157	10
172	10
