Mass Spectrum: Bicyclo[2.2.1]heptane, 2-(1,1-dimethyl-2-propenyl)-
Formula: C12H20
CAS: 69219-08-5
Molecular weight: 164
m/z	intensity
23	0
25	0
26	4
27	68
28	4
29	42
30	0
33	0
35	1
37	2
38	3
39	85
40	15
41	238
42	15
43	16
46	0
47	4
48	2
49	0
50	2
51	10
52	7
53	48
54	10
55	82
56	4
57	2
58	1
59	0
61	0
62	1
63	4
64	2
65	22
66	59
67	248
68	38
69	53
70	43
71	3
72	0
74	0
75	1
77	24
78	7
79	43
80	25
81	31
82	7
83	2
87	0
89	1
90	0
91	20
92	3
93	47
94	13
95	999
96	86
97	3
98	0
103	0
104	0
105	2
106	0
107	8
108	15
109	4
110	0
115	0
119	0
120	0
121	15
122	9
123	1
135	1
136	2
137	0
149	3
164	3
