Mass Spectrum: Oxetane, 3,3-dimethyl-
Formula: C5H10O
CAS: 6921-35-3
Molecular weight: 86
m/z	intensity
25	0
26	11
27	105
28	57
29	169
30	14
31	12
33	0
34	1
37	5
38	11
39	138
40	50
41	529
42	33
43	69
44	3
45	3
48	21
49	4
50	13
51	5
52	2
53	15
54	7
55	87
56	999
57	91
58	11
59	1
63	0
64	5
65	9
66	2
67	2
68	24
69	9
70	3
71	11
72	2
74	0
77	0
78	3
83	0
85	4
86	2
