Mass Spectrum: Tricyclo[4.2.1.0(2,5)]nonane, 3,3,4-trimethyl-
Formula: C12H20
CAS: 69219-09-6
Molecular weight: 164
m/z	intensity
22	2
23	3
24	2
25	4
26	12
27	260
28	59
29	202
30	4
33	1
36	0
37	9
38	14
39	328
40	61
41	592
42	139
43	212
46	7
47	5
49	1
50	9
51	49
52	31
53	160
54	65
55	492
56	38
57	54
58	15
59	9
60	1
61	1
62	5
63	15
64	16
65	80
66	574
67	491
68	226
69	129
70	999
71	59
72	5
75	22
76	5
77	145
78	52
79	380
80	130
81	354
82	439
83	93
84	9
87	5
88	3
89	10
90	7
91	114
92	28
93	463
94	128
95	175
96	206
97	29
98	2
99	1
103	8
105	37
106	14
107	667
108	139
109	59
110	15
111	4
115	6
117	4
119	8
120	12
121	634
122	121
123	23
124	3
127	2
133	2
134	2
135	87
136	47
137	4
138	0
149	148
150	10
163	1
164	119
165	12
