Mass Spectrum: 6,10-Dimethyl-3-(1-methylethylidene)-1-cyclodecene
Formula: C15H26
CAS: 69239-71-0
Molecular weight: 206
m/z	intensity
41	960
42	130
43	230
53	180
55	600
56	120
57	190
65	180
66	120
67	540
68	380
69	360
77	390
79	999
80	140
81	540
82	999
83	340
91	300
92	50
93	480
94	120
95	480
96	200
105	60
107	480
108	110
109	420
110	60
121	600
122	200
123	360
124	40
135	280
136	90
137	80
149	240
150	180
163	180
177	60
191	140
206	240
