Mass Spectrum: Butyrolactone, 3-cyano-4,4-dimethyl-
Formula: C7H9NO2
CAS: 69247-10-5
Molecular weight: 139
m/z	intensity
36	9
37	18
38	32
39	201
40	68
41	176
42	145
43	857
44	55
45	8
51	58
52	147
53	442
54	86
55	134
56	26
57	40
58	16
59	538
60	21
61	3
67	87
68	236
69	45
70	34
71	15
72	3
78	10
79	12
80	133
81	389
82	40
83	16
84	16
93	4
94	157
95	19
96	105
97	254
98	24
99	6
105	1
106	8
107	1
111	4
112	11
113	6
122	2
123	29
124	999
125	72
126	7
127	2
139	22
140	4
