Mass Spectrum: 4-Cycloocten-1-one
Formula: C8H12O
CAS: 6925-14-0
Molecular weight: 124
m/z	intensity
27	830
28	258
29	222
30	6
31	120
33	6
34	10
35	0
36	1
37	34
38	92
39	977
40	199
41	636
42	194
43	89
44	14
45	38
46	6
47	6
48	8
49	8
50	81
51	142
52	80
53	421
54	944
55	503
56	71
57	66
58	7
59	44
60	1
61	10
62	22
63	45
64	9
65	94
66	108
67	999
68	944
69	74
70	44
71	4
72	0
73	3
74	25
75	7
76	3
77	74
78	62
79	158
80	144
81	266
82	156
83	99
84	20
85	3
86	2
87	1
89	1
90	0
91	53
92	6
93	30
94	15
95	279
96	678
97	62
98	6
99	0
103	1
104	0
105	8
106	23
107	5
108	1
109	239
110	21
111	1
112	1
114	0
115	1
116	0
121	0
122	1
123	35
124	241
125	25
126	2
128	0
