Mass Spectrum: 2-Methoxyethylsemithiocarbazide
Formula: C4H11N3OS
CAS: 6926-54-1
Molecular weight: 149
m/z	intensity
27	83
28	202
29	251
30	305
31	293
32	999
41	43
42	105
43	198
44	219
45	313
47	22
55	33
57	32
58	119
59	498
60	306
61	29
69	42
72	28
73	41
74	111
75	155
76	35
86	364
90	89
91	84
99	43
100	106
101	206
102	31
117	168
118	76
119	14
134	19
149	870
150	83
151	45
