Mass Spectrum: Hydrazinecarbothioimidate, N,N-dimethyl-S-ethyl-
Formula: C3H9N3S
CAS: 6926-58-5
Molecular weight: 119
m/z	intensity
27	39
29	43
30	63
31	49
42	324
43	130
44	339
45	83
46	41
47	89
56	102
57	21
59	47
60	66
61	40
69	54
71	66
72	81
73	215
74	140
75	56
86	12
87	12
88	984
89	83
90	69
102	45
104	8
119	999
120	111
121	60
