Mass Spectrum: N(2),N(2)-Dimethyl-N(1)-tosylformohydrazide cyclohexylimide
Formula: C16H25N3O2S
CAS: 69282-61-7
Molecular weight: 323
m/z	intensity
55	160
59	999
65	160
91	300
98	390
110	140
125	90
139	100
155	140
168	730
169	200
281	100
323	50
