Mass Spectrum: N'-Methyl-N'-phenyl-N-tosylformohydrazide
Formula: C15H16N2O3S
CAS: 69282-57-1
Molecular weight: 304
m/z	intensity
43	170
51	360
65	310
77	999
78	140
91	360
92	220
93	190
104	220
105	440
106	90
121	440
149	970
150	90
304	160
