Mass Spectrum: 1-Naphthalenol, decahydro-4a-methyl-8-methylene-2-(1-methylethyl)-, acetate, [1S-(1.alpha.,2.beta.,4a.alpha.,8a.alpha.)]-
Formula: C17H28O2
CAS: 69297-57-0
Molecular weight: 264
m/z	intensity
41	240
43	999
55	180
67	150
79	190
81	190
93	370
107	430
109	770
119	150
133	200
148	180
151	180
161	770
189	470
204	640
264	10
