Mass Spectrum: Cyclohexanone, 2,3,3-trimethyl-2-(3-methyl-1,3-butadienyl)-, (E)-
Formula: C14H22O
CAS: 69296-91-9
Molecular weight: 206
m/z	intensity
41	510
43	260
53	130
55	300
67	200
69	270
77	250
79	320
81	150
91	320
93	460
94	430
95	740
105	200
107	530
109	320
119	180
121	260
122	280
123	999
132	90
135	230
137	300
149	100
163	100
173	40
191	590
206	770
