Mass Spectrum: Cyclohexanol, 1,3,3-trimethyl-2-(3-methyl-2-methylene-3-butenylidene)-, (Z)-
Formula: C15H24O
CAS: 69296-92-0
Molecular weight: 220
m/z	intensity
41	520
43	770
53	130
55	300
65	100
67	120
69	240
77	190
79	180
81	140
91	320
93	230
95	160
105	999
107	380
109	230
119	540
121	260
131	380
133	270
135	410
145	240
147	140
149	240
150	380
159	100
175	330
177	110
187	320
189	100
202	170
205	180
220	330
