Mass Spectrum: Distearyl thiodipropionate
Formula: C42H82O4S
CAS: 693-36-7
Molecular weight: 682
m/z	intensity
14	1
25	1
26	8
27	65
28	33
29	108
30	3
31	6
32	4
33	5
34	13
35	4
36	1
37	1
38	1
39	30
40	7
41	351
42	90
43	649
44	27
45	9
46	7
47	8
50	1
51	3
52	2
53	24
54	95
55	999
56	407
57	969
58	53
59	8
60	31
61	81
62	4
63	6
64	1
65	8
66	23
67	195
68	234
69	856
70	483
71	742
72	46
73	513
74	55
75	17
76	2
77	9
78	6
79	28
80	23
81	186
82	427
83	995
84	359
85	502
86	36
87	23
88	185
89	215
90	17
91	20
92	7
93	15
94	19
95	141
96	291
97	985
98	252
99	179
100	26
101	23
102	6
103	6
104	5
105	32
106	470
107	271
108	37
109	93
110	166
111	571
112	172
113	244
114	160
115	42
116	9
117	9
118	4
119	17
120	5
121	15
122	12
123	71
124	129
125	311
126	124
127	258
128	63
129	30
130	8
131	6
132	37
133	18
134	9
135	14
136	9
137	53
138	77
139	155
140	77
141	84
142	41
143	139
144	20
145	9
146	2
147	10
148	4
149	11
150	6
151	33
152	52
153	91
154	55
155	48
156	15
157	23
158	5
159	8
160	13
161	80
162	8
163	9
164	5
165	27
166	37
167	61
168	43
169	45
170	12
171	16
172	4
173	2
175	9
176	3
177	6
178	118
179	43
180	30
181	42
182	31
183	37
184	9
185	13
186	4
187	2
189	8
190	2
191	4
192	3
193	19
194	23
195	29
196	26
197	30
198	8
199	9
200	2
201	2
202	1
203	6
204	2
205	3
206	2
207	14
208	15
209	18
210	15
211	25
212	7
213	8
214	2
215	2
216	1
217	5
218	1
219	2
220	2
221	11
222	13
223	12
224	53
225	29
226	6
227	7
228	2
229	2
230	1
231	4
232	2
233	2
234	1
235	8
236	6
237	5
238	8
239	17
240	5
241	7
242	3
243	2
244	1
245	4
246	2
247	2
248	3
249	8
250	21
251	9
252	75
253	89
254	17
255	5
256	5
257	4
258	1
259	4
260	1
262	4
263	5
264	8
265	6
266	2
267	9
268	3
269	4
270	1
271	1
273	3
274	1
277	7
278	4
279	6
280	3
281	6
282	3
283	3
284	7
285	101
286	21
287	9
288	4
289	1
294	3
295	30
296	8
297	16
298	3
299	3
300	1
301	4
302	1
305	1
306	10
307	24
308	6
309	1
310	1
311	2
312	1
313	3
314	1
315	4
316	1
322	1
323	2
324	24
325	177
326	40
327	6
328	1
329	6
330	2
331	1
339	1
340	21
341	6
342	2
353	3
354	1
355	5
356	1
357	14
358	26
359	13
360	4
361	1
384	5
385	3
386	1
394	1
402	2
403	1
411	5
412	17
413	50
414	13
415	4
416	1
430	63
431	29
432	9
433	2
598	1
609	5
610	4
611	1
654	4
655	2
664	4
665	2
682	72
683	35
684	2
