Mass Spectrum: 2-Propanamine, N,N'-methanetetraylbis-
Formula: C7H14N2
CAS: 693-13-0
Molecular weight: 126
m/z	intensity
14	1
15	26
26	6
27	70
28	13
29	4
30	1
37	2
38	4
39	48
40	16
41	119
42	73
43	213
44	8
48	1
51	1
52	3
53	8
54	7
55	19
56	8
57	2
66	1
67	10
68	6
69	999
70	41
71	1
81	1
82	1
83	49
84	8
85	2
95	1
111	223
112	15
126	77
127	7
