Mass Spectrum: 4-Methylthiazole
Formula: C4H5NS
CAS: 693-95-8
Molecular weight: 99
m/z	intensity
12	2
13	1
14	1
15	6
24	1
25	5
26	22
27	40
28	3
32	11
33	3
34	1
35	2
36	4
37	19
38	27
39	142
40	11
41	7
42	2
43	12
44	13
45	218
46	23
47	10
48	2
49	1
50	2
51	9
52	10
53	3
54	12
55	3
56	5
57	17
58	17
59	7
60	2
63	1
64	1
66	1
68	9
69	53
70	17
71	741
72	448
73	49
74	20
82	2
83	2
96	1
97	3
98	20
99	999
100	60
101	47
102	2
