Mass Spectrum: Cyclododecanepropanenitrile
Formula: C15H27N
CAS: 69300-14-7
Molecular weight: 221
m/z	intensity
41	530
55	620
69	600
82	999
97	270
108	220
122	170
138	170
150	100
164	80
178	120
192	210
206	25
220	40
221	40
