Mass Spectrum: 8-Decen-1-ol, 5,9-dimethyl-
Formula: C12H24O
CAS: 69303-22-6
Molecular weight: 184
m/z	intensity
26	5
27	107
28	27
29	150
30	4
31	107
33	0
35	0
36	2
37	1
38	1
39	89
40	75
41	828
42	88
43	165
44	14
45	16
49	0
50	2
51	9
52	4
53	64
54	43
55	999
56	276
57	103
58	9
59	16
60	0
61	0
62	0
63	0
64	0
65	16
66	13
67	272
68	193
69	882
70	186
71	53
72	10
73	13
74	0
75	1
76	0
77	11
78	2
79	22
80	16
81	399
82	347
83	236
84	54
85	19
86	5
87	1
89	1
90	0
91	5
92	1
93	10
94	7
95	266
96	402
97	90
98	13
99	120
100	19
101	10
102	0
103	0
104	0
105	1
107	3
108	4
109	232
110	183
111	80
112	16
113	4
114	27
115	6
116	0
121	1
122	3
123	81
124	19
125	5
126	13
127	2
128	1
129	8
130	0
133	0
135	0
137	7
138	6
139	0
140	3
141	2
142	0
143	0
149	9
150	1
151	11
152	1
153	0
156	0
164	0
165	0
166	23
167	2
168	0
169	6
170	0
177	0
178	1
179	1
180	2
181	0
182	0
183	0
184	177
185	24
186	1
