Mass Spectrum: 2,4-Azetidinedione, 3,3-diethyl-1-methyl-
Formula: C8H13NO2
CAS: 69315-91-9
Molecular weight: 155
m/z	intensity
39	400
41	430
42	180
53	120
55	840
69	60
70	80
83	999
98	720
155	10
