Mass Spectrum: 4H-Imidazole-2-acetic acid, 5-(dimethylamino)-.alpha.,.alpha.-diethyl-4,4-dimethyl-, ethyl ester
Formula: C15H27N3O2
CAS: 69315-94-2
Molecular weight: 281
m/z	intensity
29	999
30	70
39	100
41	340
42	360
43	80
44	90
53	70
55	130
56	150
58	70
67	60
68	130
69	100
70	100
71	60
72	90
82	110
83	70
86	110
98	60
99	80
113	150
138	150
177	60
192	90
208	150
237	560
253	340
266	40
281	10
