Mass Spectrum: Quinoline, 3-methoxy-
Formula: C10H9NO
CAS: 6931-17-5
Molecular weight: 159
m/z	intensity
50	72
51	64
61	20
62	104
63	204
64	40
74	40
75	52
76	24
77	12
86	16
87	40
88	48
89	340
90	40
101	32
115	32
116	999
117	100
128	28
129	8
159	867
160	88
