Mass Spectrum: Spiro[bicyclo[3.1.1]heptane-2,2'-oxirane], 6,6-dimethyl-
Formula: C10H16O
CAS: 6931-54-0
Molecular weight: 152
m/z	intensity
26	14
27	393
28	25
29	238
30	4
31	20
37	3
38	12
39	429
40	70
41	939
42	55
43	439
44	13
45	39
46	2
47	0
50	26
51	92
52	56
53	299
54	81
55	370
56	38
57	24
58	6
59	24
60	3
61	2
62	5
63	22
64	6
65	105
66	86
67	581
68	133
69	346
70	71
71	922
72	76
73	6
74	2
75	2
76	1
77	270
78	90
79	999
80	152
81	389
82	384
83	327
84	48
85	30
86	2
89	4
90	1
91	262
92	56
93	196
94	67
95	237
96	271
97	57
98	15
99	4
102	1
103	10
104	3
105	137
106	20
107	166
108	88
109	603
110	142
111	34
112	2
115	4
116	0
117	6
119	57
120	14
121	60
122	35
123	516
124	129
125	12
126	0
133	3
134	6
135	4
136	1
137	414
138	60
139	5
151	9
152	12
