Mass Spectrum: 2-Propanol, 2-nitroso-, acetate (ester)
Formula: C5H9NO3
CAS: 6931-04-0
Molecular weight: 131
m/z	intensity
26	84
27	75
29	88
30	143
31	92
37	35
38	77
39	101
40	88
41	99
42	84
43	999
44	77
45	59
51	17
52	22
53	15
54	44
55	35
56	66
57	37
58	37
59	207
60	37
61	22
67	17
70	17
71	15
72	70
74	15
81	15
83	13
90	4
95	13
101	104
102	28
103	22
