Mass Spectrum: 1H-1,4-Diazepine-5,7(2H,6H)-dione, 6,6-diethyldihydro-2,2-dimethyl-
Formula: C11H20N2O2
CAS: 69315-93-1
Molecular weight: 212
m/z	intensity
53	70
55	230
56	100
58	999
69	100
70	70
71	80
72	70
83	220
97	100
98	250
99	90
112	60
115	100
127	50
128	80
140	80
155	250
183	50
184	50
212	40
213	50
