Mass Spectrum: 4-Benzyloxy-2-hydroxy-3,6-dimethylbenzoic acid, methyl ester
Formula: C17H18O4
CAS: 69336-17-0
Molecular weight: 286
m/z	intensity
26	2
27	20
29	12
30	1
31	5
37	1
38	3
39	49
40	5
41	32
42	4
43	15
44	13
45	3
50	8
51	32
52	21
53	25
54	3
55	24
56	7
57	16
58	1
59	5
60	3
61	1
62	4
63	24
64	10
65	170
66	17
67	28
68	4
69	10
70	4
71	7
72	0
73	2
74	3
75	3
76	6
77	56
78	22
79	36
80	7
81	6
82	3
83	11
84	3
85	3
86	1
87	2
88	1
89	21
90	14
91	999
92	162
93	11
94	1
95	4
96	2
97	4
98	1
99	2
103	1
104	4
105	7
106	5
107	21
108	5
109	3
110	2
111	3
112	1
113	2
115	5
116	1
117	2
118	2
119	5
120	2
121	4
122	2
123	2
124	1
125	1
126	1
127	3
128	3
129	4
130	1
131	1
132	1
133	1
134	9
135	45
136	12
137	2
138	1
139	2
140	1
141	4
142	2
143	3
145	2
146	1
147	3
148	8
149	65
150	12
151	2
152	2
153	2
154	1
155	2
156	1
157	1
158	1
159	1
161	1
162	27
163	29
164	7
165	5
166	1
167	7
168	1
169	3
170	2
171	1
174	3
175	1
176	1
177	4
178	1
179	2
180	1
181	3
182	7
183	3
184	1
185	2
186	3
187	1
192	1
193	1
194	15
195	5
196	2
197	4
198	7
199	3
200	1
205	3
208	1
209	2
210	1
211	5
212	2
223	4
224	3
225	7
226	17
227	13
228	3
229	1
230	1
237	1
239	21
240	4
252	1
253	6
254	291
255	82
256	12
257	2
258	1
269	1
271	70
272	13
273	2
279	1
285	2
286	295
287	59
288	8
289	1
