Mass Spectrum: 4-Hexenenitrile, 2,5-dimethyl-2-(3-methyl-2-butenyl)-
Formula: C13H21N
CAS: 69340-56-3
Molecular weight: 191
m/z	intensity
27	87
28	24
29	61
39	130
40	25
41	550
42	35
43	33
51	24
52	15
53	96
54	20
55	76
56	97
57	10
65	23
66	13
67	61
68	51
69	999
70	72
77	39
78	10
79	43
80	18
81	42
82	10
83	11
91	20
93	24
94	16
95	39
96	33
105	13
106	58
107	28
108	188
109	118
110	22
111	9
120	29
121	54
122	69
123	66
124	47
134	14
135	17
147	17
148	51
149	31
163	27
164	5
176	54
177	7
191	69
192	11
