Mass Spectrum: Isopropyl 4-hydroxycarbonilate, o-propoxysulfonyl-
Formula: C13H19NO6S
CAS: 69363-24-2
Molecular weight: 317
m/z	intensity
107	51
108	999
109	500
112	51
120	83
135	77
136	85
152	367
153	403
189	103
194	127
195	216
233	460
234	40
275	387
276	47
317	266
318	39
