Mass Spectrum: N-Methylmaleamic acid
Formula: C5H7NO3
CAS: 6936-48-7
Molecular weight: 129
m/z	intensity
42	96
44	298
45	379
46	14
51	12
52	42
53	172
54	168
55	317
56	51
58	395
59	130
66	23
67	5
68	53
69	11
71	199
72	85
80	6
81	25
82	104
84	999
85	630
86	36
88	3
99	627
100	130
101	12
111	45
112	146
113	15
128	48
129	125
130	5
