Mass Spectrum: (1-Ethyl-1-hydroxypropyl)cymantrene
Formula: C13H15MnO4
CAS: 69364-35-8
Molecular weight: 290
m/z	intensity
55	289
56	39
63	119
65	209
66	139
72	19
76	29
77	469
78	369
79	459
80	59
84	9
89	69
90	49
91	959
92	209
93	89
102	29
103	249
104	79
105	999
106	219
107	109
108	79
115	129
116	39
117	159
118	29
119	439
120	109
128	29
129	39
131	79
133	79
134	859
135	99
158	29
159	9
160	69
162	29
184	39
185	19
186	99
188	449
189	59
190	39
206	63
207	3
216	49
217	6
218	4
272	35
273	5
274	5
290	16
291	1
