Mass Spectrum: 2-Methyl-6-phenyl-1,3,4-thiadiazolo[3,2-a](1,3,5)triazine-5,7-dione
Formula: C11H8N4O2S
CAS: 69378-03-6
Molecular weight: 260
m/z	intensity
41	40
59	29
72	29
73	19
86	30
91	148
100	70
119	999
141	40
260	49
