Mass Spectrum: 2-Ethyl-6-phenyl-1,3,4-thiadiazolo(3,2-a)(1,3,5)-triazine-5,7-dione
Formula: C12H10N4O2S
CAS: 69378-04-7
Molecular weight: 274
m/z	intensity
72	19
86	30
91	101
100	29
119	999
154	39
155	39
274	20
