Mass Spectrum: 2-Octyl benzoate
Formula: C15H22O2
CAS: 6938-51-8
Molecular weight: 234
m/z	intensity
25	2
27	43
28	5
29	69
38	2
39	31
40	6
41	125
42	45
43	90
44	3
45	7
50	17
51	76
52	6
53	9
54	10
55	108
56	112
57	77
58	7
65	6
66	2
67	12
68	18
69	88
70	199
71	45
72	2
74	3
75	5
76	18
77	356
78	32
79	38
80	3
81	4
82	39
83	139
84	90
85	10
91	4
97	18
104	6
105	999
106	96
107	6
111	5
112	242
113	23
120	13
121	3
123	320
124	28
125	2
129	29
130	3
141	2
149	19
150	4
155	1
165	1
234	1
