Mass Spectrum: Pentanoic acid, 2-octyl ester
Formula: C13H26O2
CAS: 6938-48-3
Molecular weight: 214
m/z	intensity
22	2
26	3
27	9
28	3
29	15
35	7
36	46
37	2
38	15
39	14
40	6
41	54
42	17
43	39
44	10
45	6
50	6
51	8
52	13
53	6
54	6
55	69
56	56
57	205
58	16
59	6
60	55
61	6
63	1
65	3
66	3
67	9
68	13
69	52
70	111
71	101
72	8
73	31
74	4
75	6
76	3
77	5
78	4
79	25
80	14
81	6
82	24
83	102
84	70
85	999
86	71
87	11
91	3
92	3
93	8
95	3
96	2
97	19
98	2
99	2
100	19
101	12
102	141
103	224
104	17
105	5
110	2
111	5
112	245
113	68
114	7
115	2
116	2
117	2
122	2
127	2
128	28
129	245
130	26
131	3
132	1
133	1
139	1
141	2
143	1
144	4
153	2
154	3
157	6
167	1
170	10
171	2
172	2
199	7
