Mass Spectrum: 5-Hexen-1-one, 1-(1H-imidazol-4-yl)-4,4-dimethyl-
Formula: C11H16N2O
CAS: 69393-41-5
Molecular weight: 192
m/z	intensity
26	8
27	71
28	64
29	43
31	4
38	6
39	83
40	101
41	349
42	31
43	50
44	15
45	4
49	4
50	7
51	17
52	13
53	52
54	20
55	106
56	21
57	40
60	3
63	3
65	18
66	15
67	170
68	223
69	501
70	84
71	30
73	4
74	4
75	9
77	20
78	33
79	30
80	16
81	177
82	92
83	41
84	9
85	18
91	10
92	8
93	50
94	30
95	999
96	135
97	52
98	7
99	8
105	12
106	12
107	33
108	49
109	36
110	639
111	117
112	9
113	7
117	5
118	14
119	14
120	11
121	41
122	21
123	368
124	95
125	18
126	3
127	6
131	5
132	8
133	15
134	12
135	58
136	282
137	47
138	7
139	6
141	3
145	6
146	4
147	13
148	11
149	100
150	45
151	10
153	4
155	5
159	33
160	5
161	4
163	136
164	35
165	32
166	4
167	3
173	8
174	4
175	12
177	123
178	17
179	4
191	10
192	285
193	56
194	6
