Mass Spectrum: Fcimic chloride
Formula: C11H6Cl2FNO2
CAS: 69399-79-7
Molecular weight: 273
m/z	intensity
15	27
25	1
26	9
27	13
29	1
30	5
31	13
33	2
35	2
36	3
37	10
38	14
39	14
40	1
41	3
42	22
43	999
44	25
45	5
47	7
48	1
49	12
50	37
51	14
52	6
53	6
54	2
55	3
56	8
57	40
58	1
59	1
60	3
61	22
62	21
63	31
64	5
65	3
66	4
67	9
68	42
69	21
70	4
71	3
72	11
73	18
74	54
75	42
76	9
77	4
78	5
79	3
80	12
81	25
82	22
83	3
84	13
85	15
86	17
87	23
88	10
89	4
90	3
91	13
92	19
93	74
94	68
95	10
96	3
97	7
98	18
99	24
100	38
101	4
102	3
103	7
104	6
105	27
106	35
107	6
108	15
109	41
110	8
111	19
112	6
113	2
114	1
115	5
116	4
117	22
118	13
119	90
120	82
121	8
122	7
123	16
124	5
125	13
126	3
127	2
128	10
129	33
130	11
131	16
132	219
133	35
134	3
135	1
136	5
137	1
138	2
139	1
140	2
141	59
142	10
143	32
144	24
145	12
146	2
147	1
148	5
150	1
153	1
154	10
155	82
156	19
157	27
158	5
159	5
160	1
161	3
164	2
166	6
167	25
168	106
169	17
170	32
171	3
175	1
176	1
178	3
179	2
180	4
181	3
182	2
183	1
188	1
190	5
192	4
195	81
196	674
197	95
198	230
199	22
200	1
202	2
204	2
211	1
238	320
239	39
240	108
241	13
242	1
273	8
274	1
275	5
