Mass Spectrum: Cyclobutanol, 1-(1H-imidazol-2-yl)-2-tetradecyl-
Formula: C21H38N2O
CAS: 69393-17-5
Molecular weight: 334
m/z	intensity
55	90
69	170
82	290
95	90
110	999
123	80
133	50
137	80
147	60
151	50
161	30
165	30
175	10
179	30
189	10
193	30
203	10
207	20
217	5
221	10
231	5
235	20
245	5
249	10
259	10
263	10
273	5
278	60
287	10
301	10
306	50
316	30
334	320
