Mass Spectrum: 1H-Imidazole-4-methanol, .alpha.-heptadecyl-
Formula: C21H40N2O
CAS: 69393-20-0
Molecular weight: 336
m/z	intensity
55	130
69	120
82	270
97	999
107	370
121	370
135	120
149	140
163	100
177	90
191	70
205	60
219	50
221	30
233	50
247	70
261	50
275	60
289	50
303	30
318	280
336	40
