Mass Spectrum: 1H-Imidazole-2-methanol, .alpha.-heptadecyl-
Formula: C21H40N2O
CAS: 69393-16-4
Molecular weight: 336
m/z	intensity
26	4
27	66
28	36
29	198
30	9
31	14
39	51
40	24
41	373
42	144
43	527
44	27
45	28
46	19
48	2
51	6
52	9
53	41
54	33
55	216
56	56
57	217
58	10
59	6
60	57
61	26
62	1
63	2
64	4
65	9
66	16
67	51
68	66
69	254
70	34
71	69
72	5
73	59
74	9
75	2
76	2
77	7
78	10
79	17
80	32
81	106
82	446
83	83
84	22
85	40
86	2
87	13
88	2
89	2
91	6
92	5
93	30
94	109
95	409
96	115
97	696
98	999
99	62
100	6
101	7
104	3
105	8
106	50
107	298
108	301
109	125
110	42
111	348
112	53
113	10
114	2
115	9
116	4
117	2
118	3
119	72
120	22
121	796
122	185
123	41
124	20
125	18
126	4
127	12
129	20
130	2
131	2
132	5
133	26
134	20
135	167
136	42
137	42
138	16
139	28
140	53
141	7
143	3
145	3
147	13
148	7
149	121
150	29
151	56
152	13
153	365
154	46
155	10
157	5
161	7
162	3
163	104
164	30
165	30
166	8
167	81
168	13
169	2
171	5
175	5
177	89
178	30
179	19
180	6
181	14
182	5
183	2
185	4
189	3
191	91
192	22
193	16
194	6
195	21
196	6
197	2
199	2
200	2
201	2
203	3
205	77
206	16
207	19
208	7
209	29
210	7
211	2
213	3
217	2
218	2
219	63
220	16
221	63
222	17
223	21
224	5
225	2
227	2
228	2
229	2
231	2
233	58
234	17
235	39
236	11
237	13
238	3
239	3
240	2
247	58
248	16
249	24
250	7
251	10
252	4
256	5
257	2
259	2
261	65
262	17
263	12
264	9
265	14
266	4
267	2
275	67
276	18
277	87
278	23
279	14
280	4
284	2
285	2
287	2
289	56
290	14
291	191
292	81
293	22
294	4
303	26
304	6
305	4
306	7
307	15
308	4
317	190
318	274
319	97
320	20
321	8
322	2
334	8
335	28
336	244
337	62
338	8
