Mass Spectrum: Sydnone, 3-(1-methylethyl)-
Formula: C5H8N2O2
CAS: 6939-17-9
Molecular weight: 128
m/z	intensity
39	170
40	100
41	420
42	170
43	999
44	70
55	50
70	180
71	10
100	70
128	450
129	30
