Mass Spectrum: 4-Penten-1-one, 1-(1H-imidazol-4-yl)-
Formula: C8H10N2O
CAS: 69393-39-1
Molecular weight: 150
m/z	intensity
25	0
26	8
27	59
28	53
29	38
30	2
31	2
37	3
38	11
39	73
40	124
41	63
42	13
43	25
44	3
45	3
50	7
51	11
52	10
53	25
54	28
55	47
56	6
57	21
58	1
59	1
60	5
61	3
62	1
63	1
64	1
65	6
66	8
67	82
68	116
69	37
70	5
71	11
72	0
73	4
74	2
75	2
76	1
77	4
78	6
79	6
80	17
81	43
82	15
83	9
84	3
85	7
86	0
87	1
91	1
92	3
93	8
94	42
95	999
96	70
97	13
98	3
99	3
101	0
104	6
105	6
106	7
107	31
108	68
109	9
110	18
111	5
112	2
113	3
114	0
115	1
117	1
118	0
119	4
120	2
121	26
122	53
123	16
124	1
125	3
126	1
127	7
128	1
129	1
131	6
132	6
133	13
134	3
135	39
136	4
137	2
138	0
139	1
140	1
141	1
147	1
148	7
149	93
150	141
151	16
152	2
153	1
