Mass Spectrum: (2,2-Dimethyl-propionyl)-tris(trimethylsilyl)silane
Formula: C14H36OSi4
CAS: 69397-47-3
Molecular weight: 332
m/z	intensity
57	105
58	5
59	1
73	999
74	85
75	36
76	1
85	47
86	3
87	1
99	73
100	5
101	1
117	108
118	16
119	8
120	1
131	171
132	25
133	13
134	1
147	243
148	39
149	19
150	2
171	198
172	44
173	549
174	121
175	135
176	30
177	16
178	2
179	1
190	99
191	21
192	9
193	1
205	81
206	18
207	7
208	1
229	54
230	16
231	9
232	2
233	1
247	549
248	168
249	97
250	21
251	6
252	2
259	216
260	61
261	32
262	6
263	1
275	72
276	21
277	11
278	2
317	62
318	22
319	12
320	3
321	1
