Mass Spectrum: Cyclobutanol, 1-(1H-imidazol-4-yl)-2-tetradecyl-
Formula: C21H38N2O
CAS: 69393-21-1
Molecular weight: 334
m/z	intensity
55	120
69	90
81	120
95	230
110	999
123	160
133	690
147	350
151	20
161	150
165	20
175	70
179	20
189	70
193	10
203	60
207	20
217	40
221	10
231	40
235	10
245	30
249	10
259	30
263	10
273	40
278	40
287	40
291	5
301	60
306	40
316	240
334	40
