Mass Spectrum: 1H-Imidazole, 1-(1-oxopentyl)-
Formula: C8H12N2O
CAS: 69393-13-1
Molecular weight: 152
m/z	intensity
26	22
27	149
28	77
29	413
30	9
38	11
39	98
40	199
41	593
42	70
43	31
44	2
50	4
51	7
52	10
53	18
54	13
55	246
56	41
57	999
58	43
60	11
66	5
67	25
68	257
69	809
70	31
71	2
73	5
81	11
82	9
83	8
84	24
85	571
86	28
95	107
96	11
97	3
109	3
110	12
123	72
124	63
125	10
137	2
151	3
152	137
153	14
