Mass Spectrum: cis-Hexahydrophthalide
Formula: C8H12O2
CAS: 6939-71-5
Molecular weight: 140
m/z	intensity
27	192
28	172
29	97
39	258
40	68
41	258
42	37
43	23
51	46
53	141
54	461
55	331
65	34
66	54
67	681
68	449
69	35
77	53
79	75
80	95
81	999
82	154
83	13
85	128
93	24
95	83
96	70
108	3
109	3
110	9
111	4
125	2
139	3
140	292
141	34
142	3
