Mass Spectrum: Methanone, cyclobutyl-1H-imidazol-2-yl-
Formula: C8H10N2O
CAS: 69393-26-6
Molecular weight: 150
m/z	intensity
26	30
27	262
28	90
29	110
30	3
31	1
37	5
38	20
39	132
40	215
41	101
42	81
43	19
44	1
45	1
49	3
50	18
51	30
52	25
53	83
54	44
55	428
56	23
57	26
58	0
59	0
60	3
61	3
62	1
63	2
64	3
65	11
66	24
67	106
68	999
69	186
70	8
71	11
72	1
74	6
75	1
76	5
77	8
78	10
79	7
80	11
81	61
82	498
83	37
84	3
85	7
87	0
91	3
92	9
93	182
94	460
95	612
96	205
97	18
98	2
99	3
104	7
105	12
106	28
107	86
108	9
109	5
110	1
111	4
112	0
113	1
117	0
118	0
119	16
120	23
121	323
122	890
123	83
124	4
125	1
127	3
129	0
130	0
131	7
132	23
133	50
134	8
135	379
136	30
137	3
138	0
139	0
140	2
141	1
147	0
148	2
149	137
150	178
151	20
152	0
