Mass Spectrum: 6-Benzyl-2-(benzylthio)-7-hydroxy-5H-1,3,4-thiadiazolo(3,2-a)pyrimidin-5-one
Formula: C19H15N3O2S2
CAS: 69395-70-6
Molecular weight: 381
m/z	intensity
44	60
51	50
65	110
77	70
86	50
91	999
92	90
103	50
105	50
108	60
131	50
134	110
148	50
231	280
232	200
233	50
290	340
291	50
381	350
382	90
383	50
