Mass Spectrum: 2-(Benzylthio)-7-hydroxy-5H-1,3,4-thiadiazolo(3,2-a)pyrimidin-5-one
Formula: C12H9N3O2S2
CAS: 69395-68-2
Molecular weight: 291
m/z	intensity
43	140
44	360
45	210
55	70
57	110
59	70
60	140
65	110
69	110
91	999
92	110
121	60
122	60
144	70
148	750
149	110
150	50
167	50
168	90
169	50
291	290
292	70
293	50
