Mass Spectrum: Methanone, (3,3-dimethylcyclopentyl)-1H-imidazol-2-yl-
Formula: C11H16N2O
CAS: 69393-28-8
Molecular weight: 192
m/z	intensity
27	133
28	62
29	105
39	207
40	190
41	429
42	141
43	71
50	12
51	34
52	28
53	125
54	36
55	458
56	37
57	14
65	39
66	31
67	162
68	979
69	588
70	26
74	14
77	53
78	22
79	78
80	30
81	244
82	188
83	21
91	19
93	42
94	38
95	373
96	434
97	95
98	19
106	32
107	167
108	999
109	141
110	62
111	36
119	41
120	14
121	76
122	45
123	531
124	61
133	30
134	18
135	328
136	465
137	115
145	22
147	34
148	21
149	587
150	57
159	260
160	33
163	51
164	409
165	50
173	28
174	27
175	43
177	698
178	81
191	30
192	538
193	84
