Mass Spectrum: Sydnone, 3-(1,1-dimethylethyl)-
Formula: C6H10N2O2
CAS: 6939-25-9
Molecular weight: 142
m/z	intensity
39	999
40	33
41	348
42	62
43	24
44	105
45	5
55	62
56	152
57	476
58	33
69	24
87	43
142	114
143	5
