Mass Spectrum: Methanone, (3,3-dimethylcyclopentyl)-1H-imidazol-4-yl-
Formula: C11H16N2O
CAS: 69393-29-9
Molecular weight: 192
m/z	intensity
39	150
52	220
68	999
95	460
110	60
123	460
136	90
149	50
164	60
177	80
192	220
