Mass Spectrum: Bicyclo[1.1.1]pentan-2-ol, 2-(1H-imidazol-4-yl)-
Formula: C8H10N2O
CAS: 69393-38-0
Molecular weight: 150
m/z	intensity
41	160
53	70
55	90
68	420
78	50
81	60
95	999
97	250
104	40
105	40
106	50
107	50
108	60
123	120
135	250
149	50
150	50
