Mass Spectrum: 1H-Imidazole, 1-[(octahydro-4a(2H)-naphthalenyl)carbonyl]-, cis-
Formula: C14H20N2O
CAS: 69393-42-6
Molecular weight: 232
m/z	intensity
26	4
27	65
28	29
29	70
30	4
31	0
38	4
39	92
40	70
41	290
42	93
43	37
44	3
45	3
50	7
51	25
52	19
53	89
54	23
55	158
56	16
57	27
58	2
60	4
61	1
62	1
63	7
64	4
65	52
66	28
67	210
68	999
69	489
70	24
71	10
72	1
73	4
74	11
75	3
76	7
77	91
78	41
79	129
80	36
81	311
82	187
83	36
84	6
85	6
86	2
87	7
88	4
89	4
90	2
91	75
92	16
93	85
94	53
95	544
96	886
97	166
98	106
99	8
100	1
101	2
102	3
103	6
104	10
105	20
106	20
107	52
108	42
109	52
110	32
111	28
112	3
113	3
115	6
116	3
117	7
118	5
119	35
120	13
121	52
122	21
123	54
124	89
125	10
126	1
127	4
128	4
129	4
130	3
131	7
132	12
133	29
134	15
135	55
136	107
137	114
138	15
139	3
140	2
141	3
142	1
143	3
144	2
145	17
146	5
147	35
148	31
149	108
150	13
151	4
153	1
156	3
157	8
158	7
160	6
161	86
162	66
163	25
164	13
165	5
167	4
168	1
169	3
170	2
171	11
172	5
173	14
174	5
175	92
176	31
177	15
178	5
180	3
182	2
183	3
185	17
186	10
187	10
188	3
189	157
190	27
191	10
192	2
199	5
201	9
202	9
203	58
204	492
205	80
206	6
213	28
214	13
215	37
230	1
232	691
233	114
234	11
