Mass Spectrum: 1-Pentanone, 1-(1H-imidazol-2-yl)-
Formula: C8H12N2O
CAS: 69393-14-2
Molecular weight: 152
m/z	intensity
26	24
27	218
28	148
29	279
30	10
37	5
38	19
39	142
40	320
41	332
42	183
43	34
50	13
51	20
52	24
53	30
54	46
55	97
56	16
57	136
58	6
65	7
66	19
67	130
68	999
69	412
70	17
74	3
75	2
76	2
77	9
78	42
79	6
80	6
81	91
82	510
83	36
85	14
92	3
93	16
94	12
95	855
96	320
97	25
98	33
105	3
106	5
107	9
108	7
109	108
110	914
111	79
112	5
119	9
120	3
121	6
122	3
123	347
124	90
125	7
133	9
134	2
135	42
136	4
137	100
138	9
150	3
151	97
152	692
153	76
154	6
