Mass Spectrum: Thiazole, 2-(butylthio)-
Formula: C7H11NS2
CAS: 69390-08-5
Molecular weight: 173
m/z	intensity
41	160
57	40
58	130
72	40
86	40
90	70
98	30
117	999
126	270
131	110
144	90
173	130
