Mass Spectrum: 1-Methylimidazolidin-2-one
Formula: C4H8N2O
CAS: 694-32-6
Molecular weight: 100
m/z	intensity
25	4
26	50
27	164
28	549
29	251
30	331
31	24
38	12
39	25
40	81
41	172
42	874
43	433
44	667
45	17
46	4
49	12
51	7
52	13
53	9
54	34
55	45
56	281
57	51
58	43
59	3
68	2
69	15
70	53
71	58
72	35
73	8
82	2
83	4
84	5
85	16
99	432
100	999
101	65
102	5
