Mass Spectrum: Silane, phenyl-
Formula: C6H8Si
CAS: 694-53-1
Molecular weight: 108
m/z	intensity
25	0
26	4
27	10
29	3
30	13
31	7
36	0
37	5
38	4
39	23
40	1
41	0
42	2
43	0
45	1
49	3
50	31
51	58
52	28
53	281
54	76
55	94
56	8
57	2
58	1
60	0
62	1
63	4
64	2
65	17
66	38
67	42
68	5
69	4
70	1
72	1
73	2
74	9
75	4
76	10
77	109
78	142
79	162
80	60
81	138
82	54
83	9
84	1
85	1
86	0
89	1
90	2
91	2
92	1
93	47
94	4
95	1
97	0
100	3
101	13
102	1
103	46
104	10
105	660
106	947
107	999
108	976
109	137
110	36
111	3
