Mass Spectrum: 6-Amino-6-methylfulvene
Formula: C7H9N
CAS: 694-74-6
Molecular weight: 107
m/z	intensity
39	161
40	50
41	81
42	140
43	29
50	40
51	71
52	61
53	40
54	29
62	40
63	90
64	49
65	289
66	301
67	39
77	140
78	40
79	120
80	49
89	49
90	79
91	81
92	360
93	40
106	401
107	999
108	90
