Mass Spectrum: Cyclopropane, 1,1-dichloro-2-ethenyl-
Formula: C5H6Cl2
CAS: 694-33-7
Molecular weight: 136
m/z	intensity
12	6
13	10
14	98
15	17
24	3
25	16
26	75
27	132
28	148
29	10
35	25
36	27
37	85
38	130
39	496
40	81
41	46
42	4
43	11
44	1
47	23
48	10
49	60
50	51
51	61
52	8
53	22
54	9
55	4
56	2
57	10
59	1
60	17
61	75
62	44
63	75
64	30
65	999
66	92
71	6
72	9
73	74
74	11
75	79
76	10
77	18
78	2
79	1
82	8
83	18
84	7
85	26
86	4
87	17
88	1
89	3
91	1
95	2
96	46
97	8
98	29
99	76
100	139
101	616
102	75
103	192
104	10
105	1
107	5
108	2
109	61
110	4
111	37
112	1
113	1
120	1
121	7
123	4
135	5
136	53
137	5
138	33
139	2
140	5
