Mass Spectrum: Cyclopentanone, 2-chloro-
Formula: C5H7ClO
CAS: 694-28-0
Molecular weight: 118
m/z	intensity
25	3
26	75
27	252
29	54
30	2
31	3
34	4
35	4
36	12
37	9
38	22
39	130
40	2
41	98
42	36
43	13
44	2
45	4
46	2
47	3
48	6
49	13
50	23
51	43
52	15
53	65
54	57
55	999
56	114
57	6
58	13
59	2
60	2
61	15
62	389
63	16
64	116
65	4
66	3
67	1
68	2
69	4
71	4
72	1
73	0
75	46
76	11
77	16
78	5
79	4
81	6
82	37
83	273
84	25
85	5
89	5
90	7
91	6
92	4
93	2
94	3
95	2
97	2
99	2
105	1
106	2
108	2
111	2
113	3
118	265
119	11
120	85
121	5
