Mass Spectrum: 2,3,4,5-Tetrahydropyridazine
Formula: C4H8N2
CAS: 694-06-4
Molecular weight: 84
m/z	intensity
26	176
27	470
28	851
29	568
30	294
39	186
41	304
42	245
43	201
44	88
54	147
55	410
56	397
57	235
69	180
83	340
84	999
