Mass Spectrum: 3-Nonene, 3-methyl-, (E)-
Formula: C10H20
CAS: 69405-42-1
Molecular weight: 140
m/z	intensity
24	0
25	1
26	4
27	122
29	152
30	3
33	0
34	0
38	2
39	99
40	8
41	361
42	82
43	105
44	3
45	0
49	0
50	4
51	11
52	5
53	44
54	15
55	999
56	130
57	57
58	1
63	1
65	10
66	5
67	55
68	18
69	406
70	343
71	59
72	1
77	7
78	1
79	7
80	1
81	17
82	18
83	274
84	42
85	2
88	1
91	1
95	2
96	1
97	8
98	6
99	0
109	1
110	6
111	78
112	9
125	1
140	76
141	7
