Mass Spectrum: Vestitenone
Formula: C12H18O
CAS: 69401-36-1
Molecular weight: 178
m/z	intensity
15	1
26	4
27	93
28	14
29	65
31	2
37	3
38	13
39	303
40	75
41	456
42	48
43	818
44	19
45	13
46	2
50	28
51	100
52	53
53	241
54	24
55	207
57	22
58	23
59	6
60	2
61	3
62	10
63	41
64	17
65	196
66	61
67	692
68	551
69	321
70	18
71	102
72	17
73	6
74	13
75	8
76	5
77	266
78	61
79	384
80	66
81	158
82	20
83	55
84	14
85	194
86	56
87	5
88	1
89	9
90	2
91	238
92	61
93	326
94	287
95	999
96	84
97	19
98	23
99	6
101	1
102	5
103	24
104	10
105	364
106	55
107	328
108	71
109	584
110	108
111	86
112	7
115	36
116	11
117	44
120	337
121	187
122	63
123	50
124	6
127	5
128	13
129	14
130	18
131	23
132	15
135	451
136	76
137	17
138	1
143	6
144	3
145	210
146	25
149	24
150	14
151	2
159	7
160	24
163	104
164	12
165	1
177	5
178	188
179	24
180	2
