Mass Spectrum: 1,3,5-Pentanetricarboxylic acid
Formula: C8H12O6
CAS: 6940-58-5
Molecular weight: 204
m/z	intensity
12	2
13	1
14	13
15	22
16	7
17	11
18	43
19	1
25	3
26	55
27	370
28	115
29	203
30	9
31	42
32	3
33	2
34	2
36	5
37	14
38	40
39	445
40	90
41	530
42	587
43	425
44	113
45	296
46	9
47	7
48	2
49	3
50	23
51	40
52	23
53	150
54	247
55	811
56	114
57	138
58	262
59	31
60	374
61	14
62	8
63	10
64	4
65	27
66	23
67	175
68	186
69	65
70	151
71	221
72	29
73	160
74	12
75	2
76	1
77	8
78	7
79	9
80	4
81	94
82	75
83	279
84	53
85	104
86	887
87	45
88	7
89	2
91	3
92	2
93	4
94	27
95	63
96	72
97	52
98	65
99	224
100	150
101	69
102	5
103	2
104	1
105	2
106	3
107	3
108	3
109	17
110	4
111	9
112	368
113	96
114	999
115	62
116	35
117	3
118	1
119	1
120	1
121	3
122	90
123	51
124	29
125	10
126	6
127	172
128	11
129	3
130	130
131	9
132	14
133	1
135	1
136	1
137	3
138	3
139	4
140	204
141	46
142	22
143	3
145	4
147	1
149	2
150	6
151	9
152	2
153	2
154	1
157	1
158	121
159	10
160	2
162	1
165	1
166	1
167	2
168	153
169	64
170	7
171	1
181	1
182	1
186	17
187	5
