Mass Spectrum: N-(2-Propynyl)-N-ethylamine
Formula: C5H9N
CAS: 6943-44-8
Molecular weight: 83
m/z	intensity
27	46
28	307
29	36
30	46
39	223
40	12
41	211
42	65
43	4
52	14
53	10
54	70
55	12
68	999
69	22
82	60
83	170
84	10
