Mass Spectrum: 1H-Isoindole-1,3(2H)-dione, 2-(2-thiazolyl)-
Formula: C11H6N2O2S
CAS: 6945-01-3
Molecular weight: 230
m/z	intensity
33	7
34	7
37	29
38	48
39	38
40	45
41	7
42	4
43	15
44	65
45	149
46	17
47	3
61	3
62	6
63	19
64	11
65	13
66	128
69	5
70	7
71	11
73	42
74	133
75	225
104	999
105	69
106	0
115	16
116	1
126	4
127	18
128	8
129	3
130	11
132	9
133	1
134	22
142	0
147	1
155	18
158	2
162	2
172	68
173	15
174	28
185	0
186	22
188	36
189	1
190	0
202	78
203	5
204	0
211	0
229	209
230	519
231	69
232	23
