Mass Spectrum: 3-Sulfamyl-4,4'-diaminodiphenyl sulfone
Formula: C12H13N3O4S2
CAS: 6945-43-3
Molecular weight: 327
m/z	intensity
41	97
42	28
43	29
44	33
45	31
48	19
49	42
51	53
52	166
53	61
54	30
55	15
57	8
62	38
63	157
64	179
65	427
66	73
67	16
69	29
71	9
77	36
78	53
79	48
80	158
81	24
83	34
84	41
85	8
86	17
89	7
90	67
91	198
92	302
93	127
94	15
96	8
106	71
107	8
108	999
109	165
110	29
112	8
123	47
124	57
127	26
130	15
131	19
132	10
138	28
139	47
140	608
141	150
142	40
154	69
155	30
156	63
170	34
171	24
181	104
182	190
183	53
184	7
187	34
202	59
219	41
247	28
248	148
249	17
263	18
310	47
327	443
328	70
329	45
