Mass Spectrum: 5.alpha.,14.beta.-Cholest-9(11)-ene
Formula: C27H46
CAS: 69454-73-5
Molecular weight: 370
m/z	intensity
81	999
95	600
105	450
107	460
109	430
121	330
135	260
147	400
149	270
161	390
176	380
193	260
206	210
215	170
216	160
217	130
220	120
257	570
271	140
286	990
355	720
370	430
