Mass Spectrum: 11-Oxo-5.alpha.,8.alpha.,14.beta.-cholestan-3.beta.-ol
Formula: C27H46O2
CAS: 69454-70-2
Molecular weight: 402
m/z	intensity
81	720
95	570
108	999
121	410
122	460
135	290
147	240
193	700
206	170
213	100
219	560
229	140
232	100
233	140
247	130
248	440
253	340
261	170
263	480
276	260
289	999
324	80
344	130
351	80
366	130
369	100
384	120
402	560
