Mass Spectrum: Methanesulfonothioic acid 1,12-dodecanediyl ester
Formula: C14H30O4S4
CAS: 69466-46-2
Molecular weight: 390
m/z	intensity
41	910
45	520
55	999
64	570
67	450
69	390
81	350
87	530
101	260
115	100
129	56
143	29
171	24
194	20
197	23
198	23
199	130
200	41
201	19
231	270
232	350
233	87
234	38
247	18
264	52
279	78
280	14
281	83
282	13
283	5
311	95
312	18
313	16
