Mass Spectrum: 2,6,6-Trimethyl-bicyclo[3.1.1]hept-3-ylamine
Formula: C10H19N
CAS: 69460-11-3
Molecular weight: 153
m/z	intensity
26	2
27	64
28	98
29	67
30	80
31	1
37	2
38	5
39	89
40	26
41	173
42	111
43	999
44	442
45	14
48	10
49	2
50	5
51	17
52	11
53	68
54	34
55	119
56	144
57	568
58	27
63	5
64	2
65	24
66	14
67	133
68	61
69	321
70	462
71	39
72	2
75	2
77	47
78	10
79	58
80	26
82	55
83	31
84	220
85	16
89	1
91	30
92	7
93	45
94	23
95	612
96	65
97	11
98	31
99	2
103	2
104	1
105	10
106	4
107	10
108	8
109	10
110	173
111	25
112	6
120	2
121	13
122	4
136	5
138	7
152	1
154	4
