Mass Spectrum: Tetracosane, 1-bromo-
Formula: C24H49Br
CAS: 6946-24-3
Molecular weight: 416
m/z	intensity
26	4
27	64
29	196
30	4
31	3
36	0
38	0
39	45
41	543
42	116
43	888
44	32
45	3
51	1
52	2
53	23
54	42
55	623
56	169
57	999
58	59
59	3
60	1
65	3
66	6
67	67
68	52
69	392
70	124
71	630
72	41
73	2
77	2
78	2
79	8
80	5
81	39
82	56
83	253
84	62
85	386
86	30
87	2
89	63
90	2
91	9
92	0
93	3
94	2
95	24
96	29
97	218
98	42
99	133
100	13
101	2
104	2
105	4
106	1
107	7
108	1
109	10
110	12
111	105
112	24
113	107
114	8
115	3
119	2
121	6
123	7
124	8
125	40
126	17
127	62
128	6
133	2
134	2
135	168
136	9
137	165
138	8
139	16
140	14
141	39
142	6
143	1
147	2
148	7
149	41
150	7
151	40
152	3
153	12
154	12
155	35
156	4
161	1
162	4
163	13
164	5
165	13
166	2
167	5
168	6
169	24
170	3
175	1
176	2
177	9
178	2
179	7
180	2
181	2
182	6
183	24
184	4
190	2
191	11
192	2
193	7
194	2
195	5
196	5
197	17
198	3
203	2
204	1
205	6
207	6
208	1
209	2
210	3
211	13
212	3
219	6
221	4
222	2
223	2
224	4
225	15
226	2
233	4
234	2
235	3
236	2
237	2
238	2
239	12
240	3
247	3
248	2
249	3
250	2
252	2
253	9
254	2
260	2
261	2
262	2
263	3
264	2
266	2
267	7
268	2
275	2
277	3
280	2
281	5
282	2
283	2
288	2
289	2
290	2
291	2
294	1
295	2
296	2
302	2
303	2
304	1
305	2
306	2
308	2
309	1
317	2
318	1
319	2
331	2
333	2
336	3
337	67
338	19
339	4
345	2
346	2
347	3
359	1
360	1
373	2
375	2
414	2
415	1
416	15
417	4
418	14
419	2
