Mass Spectrum: Pentanenitrile, 2,2,4-trimethyl-
Formula: C8H15N
CAS: 69462-10-8
Molecular weight: 125
m/z	intensity
37	3
38	13
39	187
40	71
41	476
42	136
43	213
44	15
50	5
51	10
52	17
53	34
54	101
55	126
56	307
57	246
58	13
63	1
64	3
65	7
66	12
67	26
68	262
69	999
70	44
71	3
73	1
77	3
80	3
81	6
82	48
83	145
84	9
93	8
94	8
95	2
96	3
97	4
108	1
110	70
111	5
124	6
