Mass Spectrum: Phenol, 2-octadecyliminomethyl-
Formula: C25H43NO
CAS: 6947-51-9
Molecular weight: 373
m/z	intensity
33	3
34	4
35	1
36	4
37	3
39	131
41	841
42	161
43	999
44	55
45	11
46	2
49	1
50	12
51	50
52	19
53	48
54	51
55	441
56	128
57	311
58	14
59	4
60	2
61	1
62	3
63	13
64	13
65	68
66	34
67	55
68	20
69	139
70	65
71	59
72	5
73	2
74	3
75	6
77	160
78	65
79	59
80	17
81	22
82	22
83	45
84	35
85	20
86	3
87	1
88	1
89	7
90	9
91	41
92	25
93	59
94	20
95	64
96	13
97	16
98	10
99	3
100	2
101	5
102	25
103	17
104	21
105	44
106	61
107	642
108	57
109	7
110	5
111	11
112	8
113	3
114	2
115	6
116	15
117	21
118	77
119	41
120	194
121	158
122	315
123	39
124	7
125	3
126	6
127	5
128	4
129	5
130	12
131	47
132	77
133	132
134	378
135	744
136	141
137	12
138	2
140	4
141	2
142	2
143	2
144	6
145	13
146	44
147	55
148	582
149	163
150	17
151	1
152	2
153	1
154	3
155	2
156	1
157	3
158	6
159	8
160	30
161	21
162	158
163	48
164	5
168	2
169	1
170	2
171	5
172	7
173	8
174	28
176	863
177	122
178	11
182	2
183	1
184	1
185	2
186	6
187	5
188	21
190	247
191	51
192	6
196	1
198	2
200	2
201	2
202	10
204	105
205	29
206	4
210	1
212	2
215	1
216	6
217	5
218	90
219	21
220	3
224	4
226	3
227	1
228	1
229	1
230	5
232	89
233	17
234	2
238	2
239	2
240	1
244	5
246	88
247	20
248	2
252	2
253	1
257	1
258	4
260	83
261	18
262	2
266	8
267	2
270	1
272	4
273	3
274	70
275	17
276	2
280	3
281	1
283	1
285	1
286	3
288	67
289	15
290	1
300	2
301	3
302	58
303	15
304	1
314	2
316	53
317	14
318	2
327	2
328	2
330	45
331	12
332	2
342	1
344	38
345	18
346	3
356	3
357	1
358	11
359	3
369	1
370	4
371	7
372	72
373	221
374	57
375	8
