Mass Spectrum: 3.alpha.-Hydroxy-5.beta.-androstan-17-one 1,2-ethanediyl dithioacetal
Formula: C21H34OS2
CAS: 69483-58-5
Molecular weight: 366
m/z	intensity
67	90
69	90
79	110
81	100
91	90
93	110
95	90
105	90
107	110
118	999
120	100
133	60
147	80
215	60
246	320
255	80
271	80
272	70
273	60
305	50
306	30
338	450
339	90
366	220
