Mass Spectrum: Cyclohexanol, 2,2,6,6-tetramethyl-
Formula: C10H20O
CAS: 6948-41-0
Molecular weight: 156
m/z	intensity
26	16
27	220
28	74
29	243
30	18
31	107
37	5
38	13
39	420
40	79
41	693
42	153
43	473
44	53
45	205
46	8
50	12
51	43
52	20
53	200
54	60
55	384
56	232
57	282
58	42
59	254
60	12
61	3
62	3
63	11
64	5
65	43
66	19
67	319
68	102
69	739
70	146
71	266
72	328
73	201
74	18
75	4
76	3
77	36
78	11
79	48
80	13
81	177
82	963
83	312
84	214
85	355
86	103
87	15
91	26
92	5
93	17
94	16
95	354
96	63
97	46
98	13
99	82
100	23
101	3
103	3
105	6
107	13
108	9
109	999
110	162
111	17
112	6
113	30
114	4
115	3
121	6
122	10
123	382
124	46
125	62
126	9
127	6
137	7
138	411
139	50
140	7
141	26
142	4
143	3
156	250
157	53
158	5
