Mass Spectrum: Undecanenitrile, 11-bromo-
Formula: C11H20BrN
CAS: 6948-45-4
Molecular weight: 245
m/z	intensity
26	16
27	114
28	68
29	132
30	13
35	1
37	3
38	9
39	256
40	56
41	697
42	138
43	140
44	21
47	1
50	8
51	23
52	25
53	127
54	352
55	999
56	174
57	238
58	27
60	1
61	1
62	2
63	5
64	4
65	30
66	25
67	172
68	119
69	695
70	94
71	50
72	9
77	25
79	126
80	94
81	172
82	594
83	534
84	66
85	9
86	7
89	1
91	34
93	106
94	120
95	94
96	513
97	532
98	48
99	3
100	2
102	0
103	1
105	13
106	8
107	108
108	91
109	99
110	291
111	225
112	21
113	2
117	1
119	9
120	7
121	28
122	177
123	44
124	185
125	21
126	1
128	1
129	1
133	2
135	68
136	164
137	141
138	61
139	7
143	0
145	1
148	2
149	18
150	17
151	7
152	10
159	1
162	3
163	4
164	14
166	448
167	58
168	3
174	1
175	1
176	3
177	1
178	3
179	1
188	10
189	2
190	13
191	2
192	3
197	1
202	22
203	2
204	21
205	2
207	1
216	7
218	7
228	1
229	0
230	1
242	0
245	1
246	1
248	2
