Mass Spectrum: 2-Pyrrolidinone, 1-(9-octadecenyl)-
Formula: C22H41NO
CAS: 69494-15-1
Molecular weight: 335
m/z	intensity
39	30
41	200
42	50
43	130
44	30
53	10
54	40
55	170
56	40
57	50
67	60
68	40
69	110
70	180
71	30
79	10
81	40
82	10
83	30
84	30
86	280
87	10
95	40
96	30
97	30
98	999
99	580
100	50
109	10
111	10
112	200
113	90
124	60
125	10
126	130
127	50
135	1
136	2
137	3
138	12
139	5
140	70
141	27
142	2
150	2
151	2
152	5
153	2
154	65
155	7
165	1
166	20
167	8
168	56
169	20
170	2
180	17
181	5
182	59
183	18
184	1
194	25
195	7
196	35
197	13
198	1
208	30
209	9
210	21
211	10
212	1
222	37
223	10
224	18
225	7
226	1
236	50
237	15
238	14
239	6
250	52
251	15
252	8
253	4
264	39
265	11
266	6
267	1
278	33
279	9
280	7
281	1
292	30
293	10
294	2
306	22
307	9
308	2
309	1
318	6
319	1
320	9
321	4
322	1
335	27
336	7
337	1
