Mass Spectrum: Cycloheptanecarboxylic acid, 1-amino-
Formula: C8H15NO2
CAS: 6949-77-5
Molecular weight: 157
m/z	intensity
39	70
40	10
41	90
42	80
43	20
44	20
45	60
53	20
54	70
55	50
56	50
57	30
67	40
68	20
69	30
70	30
77	10
80	10
81	10
82	50
83	20
84	30
87	40
93	10
95	40
96	10
98	10
100	70
112	999
113	80
