Mass Spectrum: d-Xylopyranoside, methyl 5-C-methoxy-2,3,4-tri-O-methyl-
Formula: C10H20O6
CAS: 69502-94-9
Molecular weight: 236
m/z	intensity
43	80
71	47
73	260
75	316
81	21
83	20
85	160
87	31
88	829
101	999
102	65
111	20
113	15
117	18
127	20
129	19
131	20
141	30
145	21
173	13
205	12
