Mass Spectrum: Piperidine, 1-hydroxy-2,2,6,6-tetramethyl-, ion(1-)
Formula: C9H18NO
CAS: 69508-02-7
Molecular weight: 156
m/z	intensity
25	0
26	15
27	264
28	83
29	253
30	44
31	5
32	10
33	0
34	3
36	1
37	2
38	6
39	267
40	52
41	862
42	278
43	176
44	11
45	2
46	5
50	3
51	17
52	8
53	81
54	31
55	697
56	939
57	207
58	48
59	4
60	6
63	2
65	10
66	4
67	68
68	44
69	999
70	372
71	40
72	32
73	112
74	220
75	7
77	8
78	1
79	14
80	3
81	136
82	77
83	144
84	53
85	8
86	35
87	3
88	10
91	3
92	0
93	4
94	3
95	15
96	25
97	54
98	38
99	7
100	9
103	1
105	1
107	3
108	5
109	33
110	13
111	29
112	6
113	8
114	57
115	3
120	0
121	0
122	1
123	79
124	36
125	21
126	72
127	5
128	1
138	3
139	0
140	2
141	188
142	22
143	1
156	226
157	23
158	0
