Mass Spectrum: Sydnone, 3,3'-hexamethylenedi-
Formula: C10H14N4O4
CAS: 6951-23-1
Molecular weight: 254
m/z	intensity
41	550
42	150
43	160
44	420
45	20
55	999
56	170
57	10
68	70
69	110
82	80
83	230
84	10
111	130
169	50
196	220
197	20
224	220
225	20
