Mass Spectrum: Sydnone, 3,3'-tetramethylenedi-
Formula: C8H10N4O4
CAS: 6951-22-0
Molecular weight: 226
m/z	intensity
54	80
55	999
56	330
57	30
68	50
69	70
85	70
141	100
142	10
168	40
