Mass Spectrum: 2-Butynoic acid, 4-[(tetrahydro-2H-pyran-2-yl)oxy]-, methyl ester
Formula: C10H14O4
CAS: 69511-49-5
Molecular weight: 198
m/z	intensity
26	26
27	134
28	10
29	98
30	8
31	29
33	1
34	0
36	1
37	5
38	12
39	128
40	31
41	110
42	15
43	64
44	7
45	7
47	0
49	1
50	8
51	17
52	8
53	84
54	35
55	210
56	21
57	22
58	5
59	36
61	4
62	2
65	6
66	2
67	9
68	62
69	36
70	7
71	53
72	4
73	1
74	22
75	2
77	7
78	2
79	15
80	5
81	41
82	37
83	999
84	69
85	30
86	3
87	18
88	0
89	0
91	8
92	11
93	9
94	2
95	4
96	0
97	4
98	14
99	168
100	37
101	3
104	0
107	2
108	2
109	3
110	1
111	3
112	2
113	3
114	2
115	8
116	8
117	2
118	1
119	0
120	2
121	1
122	1
123	1
124	2
125	5
126	1
133	0
134	0
135	4
136	0
137	2
138	4
139	4
140	1
141	0
142	1
148	0
149	1
151	0
152	0
153	1
154	0
156	1
157	0
161	0
163	0
165	1
166	1
167	8
168	4
169	2
170	2
178	0
180	0
181	1
186	2
189	0
191	1
192	0
193	0
197	3
198	0
