Mass Spectrum: 2-Propanol, 1-[(1-methylethyl)imino]-3-(3-methylphenoxy)-, N-oxide
Formula: C13H19NO3
CAS: 69543-72-2
Molecular weight: 237
m/z	intensity
43	850
74	999
88	800
91	850
100	480
108	500
116	360
121	640
130	440
133	360
163	800
193	460
208	140
219	60
237	20
