Mass Spectrum: o-Chlorophenylsuccinic acid
Formula: C10H9ClO4
CAS: 6954-40-1
Molecular weight: 228
m/z	intensity
42	113
43	144
44	75
45	999
46	39
47	4
48	4
49	46
50	285
51	546
52	76
53	52
54	7
55	44
56	4
57	4
58	1
59	5
60	24
61	37
62	92
63	226
64	28
65	96
66	9
67	3
68	7
69	17
71	8
72	8
73	54
74	161
75	318
76	139
77	785
78	113
79	38
80	0
81	4
82	3
83	1
84	20
85	24
86	27
87	32
88	4
89	98
91	194
92	18
93	3
94	3
95	5
97	13
98	17
99	26
100	8
101	181
102	209
103	581
104	67
105	46
107	242
108	17
109	1
110	4
111	18
112	49
113	66
114	19
115	39
116	8
117	6
118	7
119	13
120	11
121	14
123	31
125	269
127	104
128	10
129	3
130	2
131	15
133	29
134	8
136	16
137	71
138	198
139	69
140	63
141	246
143	90
144	5
146	16
147	326
149	768
150	64
151	8
152	1
153	1
155	3
157	1
160	0
161	57
162	5
163	2
165	27
167	10
168	2
169	3
171	1
174	0
175	33
176	3
179	1
181	2
182	15
183	22
184	52
185	9
186	18
187	0
189	7
190	1
192	33
193	136
194	13
196	12
197	0
198	4
210	11
211	15
212	7
213	5
227	0
228	10
229	1
230	3
231	0
