Mass Spectrum: 11H-Indeno(1,2-b)quinoxalin-11-one
Formula: C15H8N2O
CAS: 6954-91-2
Molecular weight: 232
m/z	intensity
37	64
38	155
39	182
40	11
41	4
42	1
43	3
45	0
48	0
49	41
50	443
51	315
52	92
53	29
54	4
55	0
57	0
61	66
62	102
63	132
64	92
65	10
66	0
72	0
73	48
74	287
75	754
76	608
77	69
78	9
84	0
85	15
86	36
87	66
88	81
89	12
90	18
97	5
98	35
99	96
100	82
101	128
102	999
103	91
104	5
110	4
111	14
112	12
113	10
114	27
115	3
116	5
122	1
123	7
124	9
125	4
126	12
127	10
128	90
129	69
130	552
131	43
132	2
137	0
138	1
139	0
140	1
149	4
150	12
151	11
152	5
153	9
154	1
165	1
175	8
176	29
177	110
178	32
179	2
202	17
203	157
204	425
205	65
206	4
217	0
218	1
219	0
232	865
233	134
234	12
