Mass Spectrum: Isonicotinic acid, furfurylidenehydrazide
Formula: C11H9N3O2
CAS: 6956-53-2
Molecular weight: 215
m/z	intensity
14	1
25	1
26	17
27	53
28	52
29	22
31	1
36	2
37	17
38	36
39	56
40	6
41	6
42	9
43	3
44	7
46	2
48	1
49	7
50	74
51	253
52	102
53	29
54	16
55	8
56	2
57	2
61	1
62	3
63	7
64	69
65	32
66	13
67	4
68	4
69	2
71	1
74	1
75	12
76	28
77	105
78	599
79	147
80	21
81	89
82	9
83	3
84	2
85	1
89	1
90	1
91	5
92	4
93	180
94	50
95	21
96	3
97	5
101	1
102	1
103	11
104	182
105	27
106	999
107	84
108	8
109	18
110	2
111	1
116	1
117	1
118	3
119	8
120	3
121	3
122	754
123	183
124	12
128	1
129	2
130	4
131	2
132	1
133	1
134	1
137	14
138	1
142	1
143	1
144	2
145	2
146	1
147	3
148	4
157	3
158	18
159	3
169	1
170	1
171	2
185	1
186	4
187	2
188	1
198	2
214	11
215	318
216	46
217	4
