Mass Spectrum: Propanedinitrile, (1-methylethenyl)(phenylmethyl)-
Formula: C13H12N2
CAS: 69564-95-0
Molecular weight: 196
m/z	intensity
25	0
26	6
27	21
28	10
29	1
32	1
33	0
36	0
37	6
38	16
39	116
40	8
41	38
42	1
43	0
46	1
47	0
49	1
50	25
51	67
52	22
53	4
54	0
55	0
57	0
58	0
60	0
61	3
62	13
63	43
64	15
65	156
66	10
67	0
69	0
70	0
71	0
73	0
74	7
75	11
76	13
77	25
78	26
79	3
83	0
85	0
86	2
87	3
88	3
89	24
90	10
91	999
92	76
93	2
95	0
97	0
98	0
99	1
100	2
101	6
102	4
103	6
104	2
105	2
106	0
111	0
112	0
113	1
114	1
115	7
116	2
117	1
118	0
119	0
125	0
126	2
127	7
128	12
129	3
130	2
131	0
139	1
140	2
141	2
142	1
143	1
144	0
151	0
152	1
153	3
154	3
155	4
156	2
157	0
166	0
167	1
168	1
169	0
179	0
181	0
195	0
196	3
197	0
