Mass Spectrum: 2,2-Dimethyl-1-phenyl-4-(trimethylsilyl)but-3-en-1-one
Formula: C15H22OSi
CAS: 69562-05-6
Molecular weight: 246
m/z	intensity
27	11
29	9
31	9
39	12
41	20
43	39
44	9
45	51
47	5
50	14
51	58
52	5
53	8
55	12
57	9
58	17
59	79
60	8
61	8
65	5
67	7
69	12
70	5
71	9
73	355
74	37
75	81
76	15
77	238
78	24
79	7
81	5
83	29
84	5
85	16
91	20
95	9
97	8
99	46
100	6
101	5
103	5
104	5
105	999
106	85
107	9
109	12
111	36
112	5
113	11
115	21
116	7
117	6
119	6
121	6
122	11
123	5
125	19
126	17
127	8
128	13
129	19
131	10
133	14
135	17
141	44
142	20
143	10
145	11
147	20
148	5
149	14
155	19
156	19
157	38
158	6
159	9
161	4
173	8
174	10
175	5
177	15
179	6
182	4
189	7
191	5
192	7
201	9
203	9
205	9
215	18
216	14
217	17
218	6
230	8
231	144
232	31
233	13
244	10
245	53
246	222
247	62
248	26
249	5
