Mass Spectrum: Cyclopentene, 3-methyl-3-(trimethylsilyl)acetyl-
Formula: C11H20OSi
CAS: 69561-98-4
Molecular weight: 196
m/z	intensity
26	9
27	37
28	11
29	21
30	1
31	10
37	0
38	2
39	45
40	7
41	63
42	8
43	68
44	40
45	102
46	7
47	19
48	1
49	1
50	4
51	12
52	8
53	52
54	5
55	15
56	2
57	12
58	10
59	33
60	4
61	15
62	2
63	4
64	1
65	17
66	9
67	11
68	2
69	6
70	4
71	6
72	31
73	999
74	80
75	213
76	15
77	31
78	7
79	55
80	32
81	180
82	20
83	8
84	1
85	5
86	1
87	1
89	2
90	0
91	32
92	4
93	2
94	1
95	3
96	1
97	3
98	1
99	12
100	1
101	3
103	2
104	0
105	7
106	5
107	12
108	1
109	2
110	0
111	1
113	1
114	1
115	478
116	50
117	21
118	1
120	0
121	1
123	2
125	1
127	2
129	0
130	0
131	1
133	1
135	2
137	1
139	3
140	1
141	1
142	1
143	1
147	14
148	2
149	1
151	2
153	1
154	1
155	1
159	0
163	14
164	2
165	6
166	1
167	3
168	7
169	1
179	1
180	0
181	56
182	9
183	2
185	0
195	3
196	21
197	4
198	1
