Mass Spectrum: 4-Pyridinecarboxaldehyde, (4-pyridinylmethylene)hydrazone
Formula: C12H10N4
CAS: 6957-22-8
Molecular weight: 210
m/z	intensity
50	315
51	999
52	315
53	50
63	145
64	134
76	103
77	290
78	502
79	307
80	69
104	379
105	287
106	173
132	921
133	83
155	67
156	33
181	67
182	131
183	55
209	139
210	416
211	75
