Mass Spectrum: Acetic acid, dichloroethoxy-, ethyl ester
Formula: C6H10Cl2O3
CAS: 6957-89-7
Molecular weight: 200
m/z	intensity
14	4
15	12
16	1
18	3
19	3
26	16
27	133
28	93
29	999
30	29
31	47
32	4
35	2
36	5
37	8
38	2
39	5
40	1
41	8
42	3
43	25
44	17
45	68
46	5
47	8
48	1
49	4
50	1
51	1
55	2
56	7
57	10
58	1
59	4
61	1
62	1
63	171
64	13
65	63
66	7
67	3
73	24
74	36
75	9
76	1
81	13
82	6
83	11
84	4
85	5
87	1
91	1
92	16
93	4
94	22
95	2
99	70
100	1
101	46
102	2
103	8
108	1
109	72
110	8
111	27
112	4
113	2
118	1
120	7
121	3
127	208
128	14
129	138
130	9
131	22
132	2
135	1
136	1
137	75
138	5
139	26
140	2
155	4
156	2
157	4
158	1
159	1
165	16
166	3
167	6
