Mass Spectrum: 1-(2,4-Dichlorobenzylidene)-3-thiosemicarbazide
Formula: C8H7Cl2N3S
CAS: 6957-92-2
Molecular weight: 247
m/z	intensity
33	19
34	11
35	12
36	42
37	19
38	30
39	25
40	27
41	26
43	999
44	45
45	12
46	7
47	21
48	25
49	17
50	62
51	22
52	9
53	2
55	25
56	7
57	30
60	498
61	46
62	70
63	63
64	9
65	5
66	1
67	7
69	8
70	27
71	18
73	108
74	116
75	141
76	537
77	22
78	21
79	4
81	3
82	4
83	12
84	31
85	34
86	31
87	38
88	16
89	36
90	33
91	12
92	2
93	1
94	1
95	4
97	37
99	50
100	57
101	18
102	61
103	5
104	4
105	3
107	7
109	80
110	25
111	46
112	10
113	9
115	4
117	58
118	50
119	9
121	7
123	137
124	40
125	56
126	48
127	9
128	14
129	3
133	13
134	5
135	11
136	62
137	14
138	22
139	5
143	4
145	39
146	23
147	26
148	12
149	6
151	18
152	52
153	161
154	29
155	48
156	4
157	1
158	10
159	12
161	24
162	9
163	5
164	1
165	1
169	4
171	54
172	138
173	54
174	106
175	23
176	21
177	4
178	3
180	6
187	33
188	5
189	25
190	6
191	5
195	15
197	6
198	1
203	1
204	2
212	12
213	7
214	6
215	4
216	5
218	1
230	2
232	1
247	129
249	90
251	20
