Mass Spectrum: Bicyclo[2.2.1]heptan-2-ol, 1,2-dimethyl-, acetate, exo-
Formula: C11H18O2
CAS: 69586-78-3
Molecular weight: 182
m/z	intensity
26	35
27	209
28	122
29	205
31	24
38	40
39	357
40	83
41	411
42	148
43	764
44	156
45	161
50	44
51	130
52	57
53	169
54	42
55	161
56	45
57	100
58	65
59	51
60	112
63	36
65	118
66	65
67	193
68	51
69	58
71	38
72	31
77	4
78	116
79	772
80	747
81	876
82	101
83	41
85	46
91	8
92	88
93	999
94	727
95	93
97	70
105	11
106	74
107	545
108	67
120	34
121	30
122	793
123	125
124	67
125	128
138	27
139	59
140	37
