Mass Spectrum: 2H-Quinolizin-1-ol, 1-ethenyloctahydro-
Formula: C11H19NO
CAS: 69597-57-5
Molecular weight: 181
m/z	intensity
27	89
28	158
29	59
39	48
41	179
42	134
43	43
54	51
55	499
56	105
68	29
69	100
70	45
82	132
83	999
84	275
96	482
97	226
98	694
99	38
109	132
110	236
111	291
124	145
152	34
162	34
163	27
164	17
181	226
182	24
