Mass Spectrum: 2-(2-Phenylcyclohexyl)ethanol, (cis)-
Formula: C14H20O
CAS: 69597-23-5
Molecular weight: 204
m/z	intensity
17	6
18	2
27	23
28	6
29	23
31	23
38	1
39	43
40	5
41	77
42	6
43	11
44	2
45	3
50	6
51	27
52	8
53	24
54	11
55	50
56	4
57	15
58	2
62	2
63	15
64	7
65	41
66	9
67	72
68	16
69	20
70	5
71	69
72	3
74	2
75	4
76	9
77	63
78	58
79	62
80	23
81	47
82	31
83	7
84	4
85	5
86	1
87	1
88	3
89	15
90	5
91	506
92	131
93	27
94	43
95	133
96	10
97	5
98	3
99	3
101	2
102	14
103	59
104	999
105	182
106	16
107	16
108	12
109	5
110	1
111	1
112	3
113	4
114	1
115	128
116	47
117	379
118	113
119	13
120	2
121	1
122	3
123	1
125	4
126	4
127	21
128	88
129	273
130	175
131	94
132	23
133	5
134	1
135	1
139	2
140	1
141	22
142	14
143	234
144	96
145	33
146	4
147	2
148	2
149	1
150	1
151	1
152	4
153	5
154	3
155	5
156	3
157	90
158	702
159	97
160	13
161	2
162	1
165	3
166	1
167	2
169	1
170	1
171	31
172	4
173	3
174	1
175	1
176	2
177	1
178	9
179	2
180	1
181	1
182	4
183	2
184	4
185	14
186	481
187	74
188	6
202	1
203	1
204	470
205	70
206	6
