Mass Spectrum: 1,2-Cyclopropanedicarboxylic acid, cis-
Formula: C5H6O4
CAS: 696-74-2
Molecular weight: 130
m/z	intensity
12	1
13	5
14	11
15	20
16	2
17	38
18	160
19	3
24	1
25	9
26	48
27	162
28	81
29	449
30	17
31	74
32	1
33	5
34	17
36	7
37	53
38	102
39	735
40	314
41	327
42	180
43	109
44	47
45	559
46	20
47	8
48	6
49	2
50	3
51	2
52	2
53	35
54	10
55	354
56	46
57	156
58	24
59	11
60	26
61	5
63	1
65	1
66	16
67	28
68	674
69	123
70	24
71	131
72	15
73	36
74	4
77	1
79	1
80	3
81	4
82	5
83	13
84	744
85	999
86	893
87	47
88	13
89	3
91	1
94	7
95	26
96	3
97	2
98	6
99	23
100	12
101	4
102	1
103	1
110	1
111	2
112	36
113	252
114	16
115	2
116	1
126	1
127	2
128	2
129	21
130	17
131	19
132	1
