Mass Spectrum: 1-Butanol, 4-chloro-, acetate
Formula: C6H11ClO2
CAS: 6962-92-1
Molecular weight: 150
m/z	intensity
25	1
26	17
27	96
28	20
29	59
30	2
31	17
35	0
36	1
37	2
38	5
39	61
40	8
41	70
42	29
43	999
44	28
45	5
46	0
47	0
48	0
49	16
50	3
51	6
52	1
53	17
54	161
55	167
56	9
57	2
58	27
59	1
60	6
61	73
62	17
63	9
64	5
65	3
66	0
67	1
68	0
69	0
70	1
71	18
72	1
73	103
74	4
75	6
76	0
77	2
78	0
79	0
80	0
81	0
83	0
84	2
85	2
86	6
87	9
88	2
89	2
90	26
91	11
92	6
93	3
94	0
95	0
97	1
98	0
99	0
101	0
102	0
103	0
104	0
105	2
106	0
107	17
108	1
109	6
110	0
115	9
116	0
117	0
118	0
