Mass Spectrum: Pentacyclo[6.3.0.0(2,7).0(4,11).0(5,9)]undecan-3-one
Formula: C11H12O
CAS: 69649-19-0
Molecular weight: 160
m/z	intensity
37	20
38	74
39	535
40	124
41	107
42	13
43	0
50	107
51	241
52	110
53	133
54	91
55	59
56	2
58	24
60	1
61	10
62	37
63	110
64	73
65	253
66	508
67	128
68	25
69	2
72	2
73	3
74	19
75	16
76	19
77	300
78	224
79	465
80	78
81	34
82	481
83	27
84	2
85	0
86	4
87	5
89	31
91	328
92	44
94	394
95	999
96	67
97	4
98	2
99	1
101	3
102	21
103	60
104	54
105	39
106	5
107	2
113	1
115	157
116	72
117	180
118	29
119	11
120	1
126	2
127	21
128	35
129	31
130	7
131	54
132	79
133	10
134	1
139	0
141	12
142	13
143	7
145	105
146	11
147	0
157	0
160	424
161	54
162	4
