Mass Spectrum: Octanoic acid, 7-hydroxy-3,7-dimethyl-, methyl ester
Formula: C11H22O3
CAS: 69653-76-5
Molecular weight: 202
m/z	intensity
39	32
40	8
41	133
42	28
43	294
44	13
45	18
46	4
49	5
50	1
51	9
53	16
54	13
55	107
56	39
57	24
58	30
59	482
60	15
61	6
62	5
64	5
65	2
66	2
67	33
69	303
70	23
71	40
72	9
73	35
74	92
75	4
77	4
78	1
79	6
80	2
81	23
82	9
83	43
84	1
85	10
87	85
88	14
91	2
93	10
94	41
95	74
96	37
97	44
99	5
101	999
102	68
103	12
106	6
107	4
108	1
109	283
110	66
111	47
112	29
113	22
114	9
115	1
116	5
122	6
123	3
125	13
126	7
127	12
128	15
129	60
130	4
131	9
132	5
134	6
135	3
137	59
138	4
139	7
141	4
142	5
143	7
144	79
145	15
149	7
150	6
152	34
153	63
154	11
155	143
156	18
157	5
165	6
167	2
171	12
177	5
184	5
187	20
