Mass Spectrum: 3-Nonen-2-ol, (Z)-
Formula: C9H18O
CAS: 69668-90-2
Molecular weight: 142
m/z	intensity
26	30
27	400
29	350
30	10
31	10
38	30
39	470
40	100
41	910
42	150
43	180
45	160
50	30
51	90
52	60
53	330
54	960
55	410
56	60
57	110
58	50
59	10
62	10
63	30
64	10
65	130
66	120
67	890
68	960
69	180
70	60
71	170
72	10
75	10
77	130
78	30
79	260
80	60
81	999
82	270
83	50
84	10
85	10
91	40
93	30
95	320
96	70
97	20
98	10
99	10
109	40
110	10
124	520
125	60
126	10
142	2
