Mass Spectrum: 3-Octenoic acid, butyl ester, (Z)-
Formula: C12H22O2
CAS: 69668-86-6
Molecular weight: 198
m/z	intensity
26	20
27	300
28	125
29	761
30	17
31	31
32	2
33	3
37	3
38	11
39	261
40	40
41	999
42	82
43	215
44	285
45	15
46	2
47	2
48	11
49	20
52	14
53	109
54	254
55	938
56	369
57	869
58	46
59	22
60	2
61	5
62	2
64	17
65	18
66	129
67	51
68	92
69	74
70	72
71	12
72	71
73	14
76	15
77	6
78	23
79	20
80	208
81	600
82	200
83	18
84	12
85	14
86	72
87	8
88	2
90	9
91	3
92	8
93	6
94	100
95	500
96	246
97	26
98	86
99	122
100	31
101	2
104	3
105	12
106	5
108	14
109	3
110	6
111	3
112	55
113	12
114	2
115	3
121	2
122	58
123	461
124	177
125	14
126	17
127	2
128	15
129	2
138	3
140	8
141	25
142	32
143	63
144	6
145	3
155	2
156	6
169	3
