Mass Spectrum: 3,5-Octadien-2-ol
Formula: C8H14O
CAS: 69668-82-2
Molecular weight: 126
m/z	intensity
41	286
42	50
43	621
44	35
45	15
46	1
47	3
49	7
50	13
51	27
52	12
53	59
54	29
55	999
56	65
57	44
58	28
59	16
60	7
61	11
62	3
63	7
64	0
65	14
66	7
67	37
68	88
69	140
70	15
71	173
72	20
73	4
74	4
75	2
76	1
77	17
78	3
79	23
80	1
81	31
82	16
83	69
84	31
85	22
86	7
87	2
88	1
89	2
91	8
92	2
93	13
94	3
95	15
97	213
98	18
99	5
100	0
107	5
108	23
109	7
110	2
111	601
112	52
113	7
114	1
123	4
124	1
125	5
126	143
127	16
128	3
