Mass Spectrum: 3-Hepten-2-one, (Z)-
Formula: C7H12O
CAS: 69668-88-8
Molecular weight: 112
m/z	intensity
25	2
26	29
27	239
28	80
29	130
30	3
31	14
32	2
37	10
38	33
39	248
40	55
41	453
42	77
43	820
44	87
45	120
46	2
47	2
49	2
50	24
51	38
52	17
53	77
54	43
55	999
56	41
57	39
58	29
59	3
61	3
62	7
63	12
64	2
65	21
66	10
67	62
68	48
69	123
70	24
71	82
72	5
74	2
75	2
77	14
78	3
79	26
80	3
81	53
82	12
83	26
84	5
85	3
91	5
92	2
93	2
94	10
95	29
96	19
97	538
98	38
99	5
101	2
105	2
107	2
108	2
109	3
110	9
111	3
112	188
113	15
114	2
