Mass Spectrum: 1,2-Cyclopentanedione, 3-(2-methoxyethyl)-
Formula: C8H12O3
CAS: 69687-99-6
Molecular weight: 156
m/z	intensity
39	100
40	20
41	70
42	15
43	70
44	10
45	999
46	30
53	50
54	30
55	90
56	10
57	40
58	10
67	50
68	40
81	30
82	10
83	40
84	15
94	20
95	20
96	50
97	20
111	80
112	10
124	70
125	30
126	30
156	280
157	20
