Mass Spectrum: Butanoic acid, 4-(4-fluorophenoxy)-, ethyl ester
Formula: C12H15FO3
CAS: 69687-96-3
Molecular weight: 226
m/z	intensity
38	12
39	8
40	18
41	220
42	72
43	260
44	24
45	156
50	22
51	20
55	20
56	12
57	90
58	10
59	15
60	20
61	14
62	10
63	30
64	32
68	15
69	300
70	30
71	10
73	30
74	14
75	100
76	12
77	20
81	18
82	16
83	175
84	90
85	28
86	8
87	999
88	64
89	8
91	26
94	11
95	110
96	15
97	25
109	32
110	12
111	66
112	660
113	62
114	6
115	960
116	74
125	148
126	16
181	600
182	70
226	180
227	28
