Mass Spectrum: 2,4-Hexadienoic acid, 4-methylphenyl ester
Formula: C13H14O2
CAS: 69687-90-7
Molecular weight: 202
m/z	intensity
38	14
39	178
40	38
41	320
42	16
50	15
51	50
52	34
53	32
55	20
63	21
65	100
66	62
67	440
68	30
77	92
78	30
79	41
91	20
94	22
95	999
96	120
97	10
107	82
108	50
202	240
203	33
