Mass Spectrum: D-Erythro-Pentofuranose, 2-deoxy-1,3-bis-O-(trimethylsilyl)-, bis(trimethylsilyl) phosphate
Formula: C17H43O7PSi4
CAS: 69688-43-3
Molecular weight: 502
m/z	intensity
41	50
42	13
43	38
44	25
45	133
46	8
47	25
48	4
49	4
50	4
51	6
52	6
53	21
54	13
55	23
56	13
57	13
58	13
59	67
60	8
61	21
62	2
63	6
65	6
66	4
67	8
68	38
69	8
70	6
71	13
72	33
73	999
74	117
75	208
76	19
77	23
78	4
79	13
80	4
81	400
82	27
83	8
84	2
85	15
86	2
87	8
89	8
91	4
93	21
94	4
95	8
96	8
97	8
98	8
99	13
100	4
101	69
102	10
103	38
104	6
105	8
108	2
109	4
110	2
111	8
112	4
113	25
114	4
115	21
116	23
117	40
118	4
119	17
121	8
125	4
126	2
127	33
128	8
129	217
130	33
131	42
132	8
133	129
134	15
135	33
136	4
137	13
140	4
141	8
142	125
143	71
144	10
145	67
146	4
147	350
148	52
149	46
150	8
151	8
152	4
153	4
154	4
155	67
156	13
157	33
158	4
159	8
160	2
161	2
163	13
164	4
165	4
167	4
169	25
170	31
171	67
172	15
173	8
174	4
175	8
177	8
179	6
181	8
182	2
183	6
185	2
189	4
191	75
192	17
193	21
194	4
195	25
196	4
197	8
202	8
203	27
204	25
205	8
206	4
207	52
208	13
209	13
210	4
211	225
212	35
213	21
214	4
215	4
216	4
217	271
218	67
219	50
220	13
221	8
222	2
223	2
225	42
226	8
227	267
228	50
229	25
230	8
231	8
241	13
242	13
243	52
244	17
245	33
246	6
247	8
253	17
254	4
255	6
256	33
257	8
258	4
259	8
260	21
261	8
262	2
267	4
269	13
270	4
271	4
281	8
282	4
283	13
284	4
285	100
286	21
287	17
288	2
295	4
296	4
297	4
298	13
299	416
300	79
301	58
302	13
303	4
311	4
313	17
314	25
315	350
316	117
317	67
318	8
319	4
322	8
323	6
327	4
328	117
329	31
330	13
331	4
341	8
343	4
355	4
357	179
358	58
359	29
360	6
361	2
367	2
369	4
370	2
371	33
372	10
373	17
374	4
375	2
385	4
387	13
388	8
389	21
390	4
391	2
397	17
398	6
399	4
457	2
459	2
487	46
488	17
489	10
490	4
