Mass Spectrum: Methanesulfonic acid, pentyl ester
Formula: C6H14O3S
CAS: 6968-20-3
Molecular weight: 166
m/z	intensity
14	31
15	182
18	72
27	270
28	218
29	344
31	45
39	184
40	42
41	515
42	833
43	355
45	67
53	38
55	743
56	90
57	121
65	60
69	110
70	999
71	123
79	608
80	74
81	47
97	518
98	18
99	27
109	78
137	20
166	1
