Mass Spectrum: Propan-1-one, 2,3-dibromo-3-(3-nitrophenyl)-1-phenyl-
Formula: C15H11Br2NO3
CAS: 6968-99-6
Molecular weight: 411
m/z	intensity
38	0
39	3
40	5
41	0
42	0
43	1
44	0
46	0
50	7
51	39
52	4
53	0
55	0
56	0
57	0
61	0
63	7
64	0
65	1
67	0
68	0
69	0
71	0
74	2
75	8
76	20
77	203
78	9
79	2
80	4
81	2
82	5
83	0
85	0
86	0
87	1
88	1
89	7
90	3
91	0
92	0
95	0
96	0
97	0
98	0
100	1
101	11
102	47
103	5
105	999
106	70
107	3
108	0
111	0
112	0
113	0
115	1
117	0
118	7
120	0
123	0
125	0
126	1
127	3
129	11
130	5
131	1
132	0
133	0
134	0
135	0
138	0
139	1
140	0
143	0
144	0
146	1
148	3
150	1
151	2
152	6
153	2
154	0
155	0
157	0
158	0
160	0
162	0
163	0
165	4
166	1
167	0
168	0
169	0
170	0
171	0
173	0
174	0
176	18
178	31
179	5
180	2
181	2
183	2
185	0
188	0
189	1
190	0
191	0
192	0
193	0
194	0
198	0
205	1
206	10
207	5
208	1
209	0
210	0
211	0
212	0
213	0
214	0
219	0
222	1
223	0
224	0
225	2
226	3
227	20
229	21
230	1
233	0
234	0
236	9
237	1
249	0
250	2
252	9
253	9
254	1
255	0
271	0
272	0
312	0
314	0
331	0
332	6
334	7
335	0
338	0
