Mass Spectrum: 2-Pentenoic acid, 4-methylphenyl ester
Formula: C12H14O2
CAS: 69687-89-4
Molecular weight: 190
m/z	intensity
39	50
40	10
43	20
51	20
52	15
53	32
54	16
55	170
56	10
65	10
77	55
78	20
79	27
81	10
82	270
83	999
84	60
91	11
108	150
109	14
190	130
191	18
