Mass Spectrum: 2H-Cyclopenta[b]furan-2-one, hexahydro-5-hydroxy-3a-(2-phenylethyl)-
Formula: C15H18O3
CAS: 69687-97-4
Molecular weight: 246
m/z	intensity
39	90
40	10
41	100
42	10
43	50
44	20
45	20
50	10
51	40
52	10
53	30
54	10
55	80
56	10
57	50
62	20
63	10
64	100
65	10
66	30
67	10
68	20
69	10
70	20
77	50
78	30
79	50
80	10
81	40
82	20
83	50
84	20
85	30
86	10
87	10
89	10
90	10
91	999
92	240
93	20
94	10
95	45
96	20
97	10
99	20
103	20
104	270
105	120
106	10
107	15
108	10
109	20
111	10
113	10
115	40
116	10
117	50
118	20
123	20
124	60
125	10
127	10
128	30
129	60
130	40
131	30
132	10
133	10
137	110
138	10
141	90
142	80
143	65
144	15
145	15
146	10
154	10
155	80
156	20
157	10
158	10
159	10
168	50
169	80
170	15
171	30
172	10
181	10
182	10
183	10
184	15
185	20
186	50
187	40
188	10
200	15
201	10
210	10
211	10
228	100
229	10
246	190
247	30
