Mass Spectrum: 2-Hexenoic acid, 4-methylphenyl ester
Formula: C13H16O2
CAS: 69687-91-8
Molecular weight: 204
m/z	intensity
39	75
40	45
41	150
42	10
43	15
44	45
50	10
51	30
52	20
53	40
54	10
55	610
56	25
63	10
65	20
67	15
68	55
69	50
77	90
78	30
79	40
81	60
91	25
95	10
96	240
97	999
98	78
107	90
108	130
109	15
204	100
205	15
