Mass Spectrum: Octanoic acid, 7-methoxy-3,7-dimethyl-, methyl ester
Formula: C12H24O3
CAS: 69687-76-9
Molecular weight: 216
m/z	intensity
39	11
40	2
41	66
42	22
43	93
44	2
45	14
53	6
55	63
56	13
57	6
59	62
67	19
68	8
69	78
71	8
72	16
73	999
74	54
75	3
81	15
83	12
85	15
87	10
94	6
95	43
96	8
97	8
101	41
109	91
110	19
111	18
115	1
127	7
129	6
137	9
152	6
153	38
169	11
201	28
