Mass Spectrum: D-Ribofuranose, 2,3,5-tris-O-(trimethylsilyl)-, bis(trimethylsilyl) phosphate
Formula: C20H51O8PSi5
CAS: 69688-46-6
Molecular weight: 590
m/z	intensity
41	11
42	5
43	22
44	16
45	90
46	5
47	16
53	5
54	3
55	19
56	5
57	8
58	8
59	41
60	5
61	11
65	3
66	5
67	5
68	11
69	11
70	5
71	8
72	22
73	999
74	84
75	158
76	11
77	14
79	3
81	8
83	5
84	3
85	8
87	5
88	3
89	14
91	3
93	3
94	3
95	1
96	3
97	8
98	5
99	8
101	27
102	5
103	106
104	11
105	8
107	3
109	3
111	5
113	16
114	3
115	27
116	22
117	41
118	5
119	11
121	5
123	3
125	5
127	11
128	3
129	68
130	11
131	27
132	5
133	76
134	11
135	22
136	3
137	5
140	11
141	8
142	11
143	33
144	8
145	22
146	5
147	228
148	35
149	35
150	5
151	8
153	3
155	5
156	5
157	14
158	5
159	3
161	3
163	3
165	3
167	3
168	3
169	136
170	22
171	27
172	5
173	8
175	5
177	5
179	3
181	5
183	3
184	3
186	5
187	3
189	16
190	5
191	30
192	5
193	16
194	5
195	11
196	3
197	3
201	5
203	8
204	16
205	11
206	3
207	22
208	8
209	8
211	65
212	11
213	5
215	27
216	11
217	543
218	125
219	54
220	11
221	11
225	22
226	5
227	35
228	8
229	11
230	49
231	22
232	8
233	3
242	5
243	76
244	22
245	92
246	22
247	14
253	3
255	3
257	5
258	22
259	98
260	24
261	14
262	3
267	3
269	5
271	3
276	3
283	19
284	5
285	24
286	5
287	5
298	16
299	380
300	92
301	54
302	11
303	3
313	11
314	57
315	228
316	65
317	46
318	11
319	8
320	5
321	5
328	5
333	8
341	11
342	5
343	136
344	33
345	19
346	5
348	16
349	11
350	5
357	5
369	65
370	22
371	11
372	3
373	27
374	8
375	5
382	11
383	5
384	3
387	19
388	8
389	19
390	5
391	3
395	27
396	8
397	8
410	2
411	1
413	1
415	1
416	1
417	1
418	1
429	5
430	2
431	2
432	1
433	1
437	1
443	1
445	3
446	1
447	1
455	5
456	2
457	2
458	1
459	3
460	1
461	1
469	1
470	1
471	1
472	1
485	11
486	4
487	4
488	1
489	1
575	10
576	4
577	2
578	1
579	3
