Mass Spectrum: Thiacyclooctane-5-ol
Formula: C7H14OS
CAS: 69697-16-1
Molecular weight: 146
m/z	intensity
41	882
42	840
45	433
46	281
47	361
55	463
56	77
57	460
58	999
59	539
60	77
61	615
62	62
69	154
70	75
71	693
73	114
74	286
75	100
76	121
85	308
86	420
87	560
88	100
89	286
99	190
100	154
128	152
144	306
145	284
146	613
147	38
