Mass Spectrum: 2.beta.-Acetoxy-5-methyl-6,8-dioxa-3-thia-bicyclo(3,2,1)octane
Formula: C8H12O4S
CAS: 69697-66-1
Molecular weight: 204
m/z	intensity
41	19
42	39
43	999
44	19
45	39
46	15
47	20
55	8
56	43
57	20
58	15
60	11
61	62
70	7
71	12
72	11
73	48
74	15
76	11
84	11
85	4
87	12
88	12
89	8
98	7
115	162
116	138
117	19
132	19
144	39
158	119
159	15
204	91
205	8
206	8
