Mass Spectrum: Acetonitrile, (3,5,5-trimethyl-2-cyclohexen-1-ylidene)-, (E)-
Formula: C11H15N
CAS: 69697-21-8
Molecular weight: 161
m/z	intensity
39	308
40	39
41	288
42	19
43	112
50	46
51	115
52	58
53	85
55	46
56	27
57	39
63	62
64	35
65	92
66	31
67	23
76	27
77	173
78	77
79	119
80	25
89	39
90	25
91	250
92	112
93	54
94	15
102	27
103	85
104	150
105	231
106	104
107	20
115	42
116	100
117	115
118	442
119	999
120	135
121	115
128	23
129	42
130	115
131	192
132	538
133	115
134	35
135	15
143	10
144	46
145	50
146	962
147	115
160	54
161	846
162	115
163	12
