Mass Spectrum: 6,8-Dioxa-3-thiabicyclo(3,2,1)octane 3,3-dioxide
Formula: C5H8O4S
CAS: 69697-60-5
Molecular weight: 164
m/z	intensity
41	176
42	70
43	233
44	124
45	58
48	53
54	52
57	999
58	176
63	40
64	6
65	12
77	11
80	58
84	18
85	47
86	174
87	46
88	29
97	18
99	17
100	5
101	5
102	18
103	17
105	12
107	18
111	18
114	17
115	5
116	5
117	5
121	6
129	6
130	18
149	24
151	11
164	64
165	6
166	6
