Mass Spectrum: 4,4,5-Trimethyl-6,8-dioxa-3-thia-bicyclo(3,2,1)ctane
Formula: C8H14O2S
CAS: 69697-53-6
Molecular weight: 174
m/z	intensity
41	151
42	18
43	419
44	17
45	29
46	18
47	17
53	18
55	17
57	17
58	17
59	382
60	11
61	11
67	12
69	17
71	5
72	12
73	12
74	999
75	120
84	5
85	5
86	5
87	5
88	6
89	6
99	6
100	60
101	23
114	60
115	6
116	6
117	11
131	18
133	11
144	12
174	204
175	18
176	18
