Mass Spectrum: 5-Methyl-6,8-dioxa-3-thiabicyclo[3.2.1]octane 3,3-dioxide
Formula: C6H10O4S
CAS: 69697-61-6
Molecular weight: 178
m/z	intensity
41	108
42	12
43	999
44	54
55	12
57	60
58	120
61	11
63	6
71	5
72	6
85	6
86	6
99	162
100	136
101	17
107	18
122	29
139	11
149	11
178	30
