Mass Spectrum: 1-Azabicyclo[2.2.2]octane, 3,5-dimethyl-
Formula: C9H17N
CAS: 697-75-6
Molecular weight: 139
m/z	intensity
41	238
42	999
43	125
55	100
56	75
57	38
68	75
69	125
70	38
71	63
82	213
83	38
84	38
96	138
97	50
110	138
111	38
124	214
138	63
139	225
