Mass Spectrum: 1H-Tetrazole, 1-methyl-5-(trifluoromethyl)-
Formula: C3H3F3N4
CAS: 697-94-9
Molecular weight: 152
m/z	intensity
39	10
40	30
42	10
43	500
44	20
45	10
46	10
47	50
48	20
49	10
50	60
51	40
52	30
53	130
54	20
60	20
62	30
64	10
69	999
70	10
76	40
78	40
81	30
83	150
84	10
90	10
96	50
105	50
110	430
111	20
123	150
124	430
125	20
152	10
