Mass Spectrum: (2-Bromo-3,3,3-trifluoro-1-propenyl)pentafluorosulfur
Formula: C3HBrF8S
CAS: 69705-26-6
Molecular weight: 300
m/z	intensity
31	120
51	250
69	999
70	140
75	300
89	520
93	90
94	90
113	270
127	300
173	490
175	490
192	290
194	290
281	80
283	80
300	300
302	300
