Mass Spectrum: Propane-dioic acid, 2-(n-butyrylamino)-, ethyl ester
Formula: C9H15NO5
CAS: 69707-01-3
Molecular weight: 217
m/z	intensity
42	32
43	404
44	13
45	15
46	32
47	10
54	1
55	6
56	10
57	64
58	13
59	1
60	2
61	2
67	1
68	1
69	8
70	4
71	23
72	15
73	8
74	213
75	9
76	1
77	0
81	0
82	1
83	4
87	1
88	4
89	0
91	2
97	1
98	0
99	275
100	24
101	8
102	999
103	104
104	8
105	2
109	0
111	1
114	2
115	1
116	22
117	2
118	1
125	4
126	4
127	54
128	4
129	3
130	1
132	0
143	2
144	125
145	151
146	11
147	1
149	1
171	2
172	89
173	15
174	5
175	1
176	1
216	2
217	8
218	0
