Mass Spectrum: 1-Deoxy-1-(2-pyridylamino)-d-glucitol
Formula: C11H18N2O5
CAS: 69718-54-3
Molecular weight: 258
m/z	intensity
27	25
28	145
29	21
30	29
31	34
32	39
39	23
41	12
42	11
43	49
44	12
45	15
51	38
52	33
53	16
57	12
60	14
61	27
67	48
73	29
78	219
79	120
80	74
94	172
95	52
107	999
108	287
109	20
119	25
121	15
137	258
138	29
149	24
167	24
179	16
197	14
209	5
227	9
258	7
