Mass Spectrum: N,N'-Bis(dimethylthiophosphinyl)-1,4-diaminobutane
Formula: C8H22N2P2S2
CAS: 69722-88-9
Molecular weight: 272
m/z	intensity
30	160
56	60
58	90
65	140
70	999
93	570
94	150
162	260
179	170
272	110
