Mass Spectrum: 4H-1,16-Etheno-5,15-(propaniminoethano)furo[3,4-l][1,5,10]triazacyclohexadecine-4,21-dione, 3,3a,6,7,8,9,10,11,12,13,14,15-dodecahydro-3-(4-methoxyphenyl)-
Formula: C29H38N4O4
CAS: 69721-60-4
Molecular weight: 506
m/z	intensity
70	650
84	999
98	720
100	320
110	280
113	200
121	340
127	140
129	220
135	110
141	110
155	320
165	120
169	230
223	110
237	320
238	170
250	140
251	130
252	200
264	140
265	220
266	160
278	110
279	90
280	90
292	160
391	50
463	20
506	140
507	20
