Mass Spectrum: N-(Dimethylthiophosphinyl)allylamine
Formula: C5H12NPS
CAS: 69722-84-5
Molecular weight: 149
m/z	intensity
56	970
61	60
63	70
65	120
78	60
79	190
93	210
94	999
116	60
149	170
