Mass Spectrum: N-(Dimethylthiophosphinyl)isopropylamine
Formula: C5H14NPS
CAS: 69722-85-6
Molecular weight: 151
m/z	intensity
58	999
59	20
62	30
65	40
76	30
79	40
93	120
94	160
118	20
151	80
