Mass Spectrum: 4H-1,16-Etheno-5,15-(propaniminoethano)furo[3,4-l][1,5,10]triazacyclohexadecine-4,21-dione, 10,14-diacetyl-22-benzoyl-3,3a,6,7,8,9,10,11,12,13,14,15-dodecahydro-3-(4-methoxyphenyl)-
Formula: C40H46N4O7
CAS: 69721-72-8
Molecular weight: 694
m/z	intensity
70	140
77	460
84	250
98	150
100	300
105	999
110	100
122	480
157	140
162	440
191	390
213	100
231	100
242	140
305	170
318	180
371	30
389	40
529	20
530	10
547	20
548	10
572	20
590	10
651	5
694	5
