Mass Spectrum: 4H-1,16-Etheno-5,15-(propaniminoethano)furo[3,4-l][1,5,10]triazacyclohexadecine-4,21-dione, 3,3a,6,7,8,9,10,11,12,13,14,15-dodecahydro-3-(4-hydroxyphenyl)-10,14-dimethyl-
Formula: C30H40N4O4
CAS: 69721-88-6
Molecular weight: 520
m/z	intensity
70	556
84	999
98	465
107	272
111	511
223	238
224	170
236	227
237	159
238	125
252	147
264	193
265	159
266	159
434	136
448	113
463	625
477	113
505	113
520	261
521	113
