Mass Spectrum: 4H-1,16-Etheno-5,15-(propaniminoethano)furo[3,4-l][1,5,10]triazacyclohexadecine-4,21-dione, 3,3a,6,7,8,9,10,11,12,13,14,15-dodecahydro-3-(4-methoxyphenyl)-10,14-dimethyl-
Formula: C31H42N4O4
CAS: 69721-61-5
Molecular weight: 534
m/z	intensity
70	505
84	999
98	494
111	483
115	139
121	193
125	161
135	118
141	172
153	139
155	182
165	118
169	107
223	172
237	247
238	172
250	225
251	204
252	150
266	150
278	193
279	172
448	118
464	43
477	731
491	129
505	32
519	139
534	516
535	182
