Mass Spectrum: 1,3-Dibenzyloxy-2-propanol
Formula: C17H20O3
CAS: 6972-79-8
Molecular weight: 272
m/z	intensity
27	5
28	2
29	9
31	5
39	30
40	3
41	14
42	1
43	12
44	8
45	9
50	4
51	18
52	5
53	3
55	4
56	2
57	22
58	2
62	2
63	14
64	5
65	86
66	5
67	1
69	2
71	1
72	1
73	1
75	34
76	2
77	44
78	10
79	58
80	4
81	1
82	2
84	2
89	19
90	15
91	999
92	183
93	11
103	4
104	7
105	20
106	5
107	428
108	51
109	3
117	2
119	4
120	4
121	11
122	3
133	2
147	4
148	1
149	2
151	1
152	1
163	7
164	2
165	6
167	8
168	2
169	2
179	2
180	2
181	617
182	70
183	6
197	1
220	1
256	0
272	1
