Mass Spectrum: N-(Dimethylthiophosphinyl)-.gamma.-aminobutyric acid methyl ester
Formula: C7H16NO2PS
CAS: 69722-98-1
Molecular weight: 209
m/z	intensity
56	180
65	160
84	999
86	180
93	760
94	670
109	100
116	980
177	160
209	210
