Mass Spectrum: .beta.-Alanine, N,N-diethyl-
Formula: C7H15NO2
CAS: 6972-41-4
Molecular weight: 145
m/z	intensity
14	2
15	18
17	2
18	7
25	1
26	17
27	111
28	110
29	115
30	156
31	7
39	7
40	6
41	27
42	267
43	23
44	61
45	35
46	2
52	3
53	3
54	16
55	30
56	145
57	38
58	383
59	15
60	9
61	1
67	1
68	4
69	2
70	27
71	12
72	27
73	36
74	4
75	1
80	1
82	2
83	1
84	68
85	9
86	999
87	58
88	237
89	12
90	1
98	8
99	2
100	5
101	1
102	34
103	3
108	1
114	4
115	1
116	5
117	5
125	1
126	1
128	1
129	1
130	375
131	29
132	2
143	1
144	25
145	164
146	15
147	1
150	1
