Mass Spectrum: Pyridine, 1-ethyl-1,2,3,6-tetrahydro-
Formula: C7H13N
CAS: 6972-40-3
Molecular weight: 111
m/z	intensity
27	198
28	53
29	144
30	55
38	19
39	123
40	23
41	164
42	999
43	29
44	15
47	15
48	11
51	19
52	19
53	73
54	142
55	75
56	202
57	172
58	43
64	13
66	63
67	91
68	59
80	79
81	33
82	71
83	19
94	19
95	19
96	833
97	59
108	55
110	226
111	408
112	39
