Mass Spectrum: 6,10,14-Trimethyl-pentadecan-2-ol
Formula: C18H38O
CAS: 69729-17-5
Molecular weight: 270
m/z	intensity
29	170
41	391
42	97
43	999
45	879
55	686
56	441
57	976
58	230
59	136
67	49
68	63
69	562
70	365
71	572
81	83
82	49
83	294
84	146
85	245
95	88
96	78
97	438
98	98
99	59
109	63
110	33
111	194
112	145
113	48
125	63
126	171
127	48
140	34
141	15
182	9
196	15
210	9
250	9
