Mass Spectrum: N-(Dimethylthiophosphinyl)butylamine
Formula: C6H16NPS
CAS: 69722-86-7
Molecular weight: 165
m/z	intensity
56	40
65	80
72	999
76	100
79	100
93	460
94	930
122	60
132	110
165	620
