Mass Spectrum: Diphenyl ether, 2,4,6-trinitro-
Formula: C12H7N3O7
CAS: 6973-40-6
Molecular weight: 305
m/z	intensity
30	50
46	10
50	60
51	170
65	550
77	200
89	60
93	999
94	70
113	40
127	30
139	200
155	10
156	10
157	10
166	20
167	18
168	18
180	21
196	10
212	10
214	10
226	10
242	10
260	10
272	10
288	10
305	190
306	27
307	2
