Mass Spectrum: 2,4-Octadienoic acid, 7-hydroxy-, methyl ester, [R-(E,E)]-
Formula: C9H14O3
CAS: 69734-24-3
Molecular weight: 170
m/z	intensity
26	9
27	92
29	52
30	3
31	21
33	4
37	3
38	19
39	153
40	58
41	151
42	30
43	262
44	26
45	789
46	25
47	9
48	6
50	12
51	42
52	15
53	58
54	22
55	74
56	9
57	21
58	10
59	131
60	8
61	9
62	12
63	22
64	11
65	120
66	471
67	999
68	80
69	36
70	9
71	30
72	12
73	16
74	23
75	9
76	4
77	57
78	18
79	43
80	8
81	64
82	20
83	58
84	44
85	33
86	5
87	8
88	2
89	3
91	35
92	9
93	81
94	246
95	351
96	54
97	41
98	21
99	11
100	24
101	10
103	4
104	2
105	7
106	2
107	8
108	6
109	23
110	17
111	578
112	48
113	20
114	8
115	15
116	2
117	2
119	6
120	4
121	20
122	6
123	55
124	7
125	50
126	828
127	80
128	15
129	4
131	3
137	19
138	18
139	139
140	19
141	6
142	2
143	3
151	1
152	8
153	4
154	6
155	8
156	0
169	3
170	32
171	8
172	1
