Mass Spectrum: Oxiranemethylidene cyclohexylamine N-oxide
Formula: C9H15NO2
CAS: 69739-33-9
Molecular weight: 169
m/z	intensity
26	16
27	137
28	84
29	144
30	23
31	17
36	2
37	2
38	9
39	185
40	31
41	649
42	72
43	105
44	33
45	8
46	5
50	8
51	21
52	17
53	77
54	149
55	999
56	110
57	49
58	29
59	51
60	32
62	3
63	2
65	22
66	13
67	259
68	51
69	39
70	335
71	74
72	51
73	7
74	3
76	6
77	23
78	7
79	62
80	36
81	117
82	108
83	662
84	51
85	11
86	24
87	267
88	66
89	4
91	11
92	4
93	30
94	29
95	39
96	39
97	23
98	17
99	8
100	2
104	6
105	7
106	5
107	8
108	19
109	25
110	56
111	12
112	7
113	4
115	4
117	2
118	4
119	4
121	50
122	31
123	14
124	18
125	17
126	57
127	7
128	3
129	2
132	2
133	2
134	11
135	6
136	19
137	8
138	6
140	7
141	44
142	4
151	27
152	105
153	83
154	11
155	2
169	175
170	27
171	4
