Mass Spectrum: 2-Cyclohexyl-4-hydroxymethyl-8a-methyloctahydrobenzo[e][1,2]oxazine-3-carbonitrile, TBDMS derivative
Formula: C23H42N2O2Si
CAS: 69739-43-1
Molecular weight: 406
m/z	intensity
26	19
27	164
28	36
29	61
30	13
31	2
38	2
39	66
40	13
41	214
42	21
43	147
44	30
45	109
46	6
47	78
48	4
49	2
50	6
51	15
52	9
53	51
54	33
55	228
56	109
57	42
58	12
59	23
60	21
61	34
62	3
63	5
64	3
65	31
66	16
67	74
68	21
69	41
70	15
71	20
72	5
73	63
74	20
75	999
76	152
77	145
78	22
79	89
80	248
81	78
82	36
83	121
84	15
85	11
86	2
87	3
89	13
90	3
91	57
92	20
93	70
94	249
95	86
96	40
97	15
98	23
99	19
100	4
101	7
102	2
103	5
104	9
105	30
106	84
107	99
108	68
109	19
110	26
111	10
112	6
113	3
114	2
115	14
116	5
117	25
118	19
119	22
120	52
121	76
122	238
123	37
124	7
125	7
126	4
127	2
128	7
129	8
130	7
131	18
132	75
133	24
134	38
135	16
136	20
137	15
138	8
139	11
140	5
141	6
142	4
143	3
144	10
145	12
146	25
147	13
148	51
149	91
150	29
151	11
152	20
153	19
154	4
155	2
157	3
158	5
159	7
160	15
161	12
162	220
163	53
164	312
165	66
166	32
167	7
168	7
169	3
171	3
172	2
173	4
174	14
175	11
176	200
177	52
178	26
179	8
180	5
181	6
185	3
186	4
187	2
188	14
189	58
190	80
191	21
192	19
193	12
194	3
195	4
196	2
197	4
198	2
201	2
202	9
203	11
204	93
205	23
206	12
207	3
210	4
213	3
214	2
216	5
217	6
218	16
219	10
220	2
222	4
223	7
224	2
227	2
228	3
229	3
230	3
231	9
232	17
233	3
234	5
235	3
237	2
240	4
241	3
243	3
244	3
245	5
246	47
247	168
248	34
249	8
253	11
254	2
257	3
261	6
262	11
263	2
274	11
294	3
322	9
323	2
349	45
350	12
351	3
364	2
389	5
391	5
406	9
407	3
