Mass Spectrum: 2-Cyclohexyl-4-hydroxymethyl-octahydrobenzo[e][1,2]oxazine-3-carbonitrile, TMS derivative
Formula: C19H34N2O2Si
CAS: 69739-35-1
Molecular weight: 350
m/z	intensity
26	3
27	23
29	19
30	5
39	19
41	113
42	16
43	23
44	6
45	24
46	4
47	11
52	3
53	21
54	23
55	239
56	34
57	15
58	6
59	23
60	5
61	12
65	7
66	9
67	43
68	14
69	14
70	7
71	6
72	8
73	310
74	26
75	252
76	13
77	20
78	13
79	81
80	43
81	77
82	21
83	207
84	22
85	4
86	4
87	4
88	3
89	7
91	13
92	5
93	46
94	24
95	23
96	16
97	14
98	14
99	12
100	11
101	9
103	59
104	12
105	16
106	13
107	65
108	999
109	43
110	16
111	5
112	6
113	8
114	11
115	7
116	10
117	13
118	12
119	14
120	23
121	13
122	19
123	12
124	16
125	5
126	4
127	4
128	7
129	15
130	6
131	8
132	10
133	9
134	14
135	5
136	11
137	28
138	18
139	9
140	9
141	8
142	9
143	10
144	12
145	6
146	11
147	36
148	27
149	43
150	17
151	16
152	13
153	58
154	15
155	8
156	9
157	2
159	3
160	3
161	17
162	15
163	15
164	6
165	22
166	5
167	5
168	5
169	13
170	10
171	4
175	5
176	10
177	10
178	31
179	14
180	4
181	5
182	4
183	5
187	6
189	11
190	8
191	4
192	4
193	3
194	3
195	3
196	8
197	27
198	8
199	9
200	3
203	6
204	8
205	7
206	4
207	7
208	8
209	6
210	5
211	3
212	3
213	3
217	21
218	5
219	6
220	4
221	4
222	9
223	5
224	3
225	3
226	15
227	5
229	12
230	5
231	7
232	5
233	5
234	3
235	3
236	5
237	3
238	3
239	4
240	5
241	3
242	4
243	7
247	252
248	26
249	4
251	22
252	22
253	7
254	2
260	22
261	5
265	3
266	2
267	6
268	3
269	2
279	4
295	2
307	16
308	6
320	5
321	12
322	5
323	4
324	3
333	10
334	3
335	38
336	10
337	2
350	73
351	17
352	4
