Mass Spectrum: 2-Cyclohexyl-4-hydroxymethyl-octahydrobenzo[e][1,2]oxazine-3-carbonitrile
Formula: C16H26N2O2
CAS: 69739-36-2
Molecular weight: 278
m/z	intensity
26	7
27	84
28	36
29	94
30	28
31	32
38	5
39	86
40	18
41	329
42	66
43	102
44	24
52	13
53	79
54	81
55	413
56	117
57	45
58	7
59	9
60	6
61	10
63	4
64	3
65	31
66	33
67	140
68	42
69	54
70	36
71	24
72	43
73	11
74	8
75	3
76	3
77	33
78	43
79	225
80	93
81	247
82	75
83	396
84	7
91	43
92	26
93	137
94	50
95	53
96	50
97	40
98	50
99	14
100	4
101	2
102	2
103	4
104	13
105	25
106	38
107	269
108	999
109	126
110	69
111	21
112	14
113	6
114	14
115	58
116	29
117	18
118	16
119	34
120	24
121	27
122	30
123	23
124	24
125	63
126	18
127	4
128	4
129	8
130	7
131	11
132	25
133	35
134	42
135	26
136	43
137	89
138	41
139	35
140	9
141	4
142	2
143	3
144	10
145	9
146	40
147	19
148	45
149	34
150	28
151	18
152	22
153	213
154	45
155	15
156	4
157	2
158	2
159	3
160	5
161	29
162	17
163	12
164	30
165	19
166	13
167	6
168	11
169	19
170	13
171	3
172	2
173	2
174	2
175	6
176	9
177	10
178	28
179	83
180	18
181	6
182	6
183	2
184	2
185	3
186	2
187	3
188	3
189	9
190	15
191	9
192	15
193	12
194	4
195	9
196	25
197	8
198	2
199	2
202	2
203	7
204	8
205	11
206	5
207	5
208	6
209	4
210	7
211	2
216	2
217	15
218	4
219	4
220	9
221	10
222	14
223	7
224	2
229	4
230	3
231	7
232	6
233	12
234	9
235	136
236	22
237	3
238	1
243	10
244	3
247	24
248	7
249	9
250	5
251	7
252	12
253	2
260	13
261	77
262	15
263	2
277	7
278	292
279	58
280	7
281	2
