Mass Spectrum: D-Mannopyranose, 1,2,3,4-tetrakis-O-(trimethylsilyl)-, bis(trimethylsilyl) phosphate
Formula: C24H61O9PSi6
CAS: 69744-65-6
Molecular weight: 692
m/z	intensity
28	4
31	3
41	3
43	15
44	11
45	63
46	4
47	7
53	4
54	4
55	8
58	5
59	24
61	7
69	4
72	24
73	999
74	126
75	92
76	5
77	5
81	22
85	4
88	3
99	8
101	21
102	5
103	50
104	5
109	3
111	4
113	32
114	5
115	8
116	8
117	20
119	7
121	3
127	8
128	4
129	319
130	36
131	35
132	3
133	75
134	10
135	12
137	3
140	3
141	5
142	11
143	22
145	13
147	254
148	44
149	32
151	8
153	3
154	4
155	17
156	3
157	12
159	5
161	11
163	5
169	16
170	3
171	8
173	5
175	4
177	3
181	4
183	5
189	26
190	8
191	97
192	27
193	13
195	4
196	3
199	3
203	8
204	599
205	121
206	56
207	25
208	4
209	5
211	65
212	11
213	6
215	5
216	3
217	117
218	26
219	11
221	10
225	19
226	6
227	30
228	6
229	7
230	10
231	14
232	4
233	3
241	4
242	22
243	46
244	11
245	9
246	9
247	8
248	3
253	10
255	3
257	4
259	4
269	11
270	15
271	25
272	6
273	11
274	3
283	12
284	6
285	15
286	5
291	7
292	3
297	7
298	11
299	346
300	86
301	54
302	8
303	4
305	20
306	7
307	4
313	12
314	22
315	114
316	34
317	37
318	10
319	5
343	4
345	19
346	7
347	4
356	4
357	123
358	35
359	19
360	7
361	5
362	4
369	19
370	86
371	28
372	14
373	14
374	5
375	4
382	3
383	4
384	8
385	11
386	20
387	456
388	159
389	97
390	33
391	9
393	4
415	1
417	2
431	2
442	2
443	2
444	2
445	2
458	1
459	2
460	1
461	2
462	1
463	1
470	1
471	5
472	2
473	4
474	2
475	1
484	3
485	2
486	1
497	2
498	1
587	4
588	2
589	2
590	1
591	1
677	13
678	10
679	5
680	3
681	1
