Mass Spectrum: Methyl 4,7,7-trimethylbicyclo[2.2.1]heptan-2-one, 3-methylenamine, N-oxide
Formula: C11H17NO2
CAS: 69740-36-9
Molecular weight: 195
m/z	intensity
27	53
28	107
29	65
30	26
39	39
40	26
41	806
42	195
43	143
44	12
53	78
54	52
55	598
56	191
57	39
65	39
66	39
67	265
68	999
69	182
70	39
77	65
78	15
79	104
80	52
81	107
82	143
83	676
84	78
85	21
91	91
92	26
93	117
94	143
95	364
96	91
97	26
105	39
106	39
107	117
108	117
109	351
110	104
111	39
112	52
118	39
119	132
120	104
121	12
122	143
123	52
124	65
125	52
126	26
134	104
135	182
136	221
137	52
138	26
139	223
140	26
148	65
149	75
150	533
151	104
152	192
153	26
162	52
163	26
164	39
166	26
167	169
168	26
177	13
178	131
179	26
180	39
181	19
195	468
196	65
197	9
