Mass Spectrum: 2-Cyclopenten-1-one, 4-hydroxy-2-methyl-3-phenyl-
Formula: C12H12O2
CAS: 69745-73-9
Molecular weight: 188
m/z	intensity
37	65
38	145
39	360
40	50
41	150
42	350
43	440
44	170
45	100
50	320
51	470
52	90
53	75
54	20
55	80
56	10
57	20
58	20
59	20
60	10
61	80
62	180
63	260
64	75
65	160
66	40
67	20
68	10
69	50
71	55
73	90
74	175
75	150
76	75
77	260
78	130
79	35
81	15
82	15
83	20
85	50
86	90
87	120
88	50
89	220
90	60
91	290
92	20
93	10
94	20
97	20
98	30
99	15
101	20
102	90
103	60
104	30
105	50
110	20
111	30
113	45
114	60
115	999
116	380
117	330
118	140
119	20
126	10
127	75
128	175
129	120
130	30
131	90
132	40
133	20
139	20
140	10
141	130
142	140
143	150
144	40
145	240
146	40
159	110
160	130
170	20
171	40
173	20
187	45
188	390
189	55
