Mass Spectrum: 3-Cyclopenten-1-one, 2-hydroxy-3-(3-methyl-2-butenyl)-
Formula: C10H14O2
CAS: 69745-70-6
Molecular weight: 166
m/z	intensity
39	660
40	140
41	870
42	80
43	300
44	20
50	130
51	180
52	100
53	350
54	140
55	360
56	430
57	80
63	60
64	10
65	130
66	90
67	480
68	100
69	250
70	40
77	320
78	100
79	390
80	90
81	230
82	120
83	190
84	30
91	280
92	120
93	265
94	75
95	999
96	110
105	505
106	160
107	170
108	20
109	170
110	100
111	45
119	100
120	90
121	65
122	90
123	460
124	60
133	450
134	50
137	60
138	400
139	35
147	50
148	200
149	50
151	100
152	15
166	390
167	60
