Mass Spectrum: 1-Methyl-5-(4'-bromophenyl)tetrazole
Formula: C8H7BrN4
CAS: 69746-31-2
Molecular weight: 238
m/z	intensity
43	999
50	235
51	121
62	185
63	131
75	209
76	179
77	105
88	182
89	137
90	185
102	263
103	139
116	73
117	30
155	83
157	75
168	133
169	70
170	140
181	65
182	54
183	70
184	50
196	263
198	259
209	105
210	104
211	110
212	102
238	374
240	357
