Mass Spectrum: 9-Amidinohydrazono-2,7-bis-[2-(diethylamino)ethoxy]fluorene
Formula: C26H38N6O2
CAS: 69741-99-7
Molecular weight: 466
m/z	intensity
30	47
31	6
32	3
42	18
43	11
44	80
56	26
57	13
58	51
70	11
71	11
72	40
84	12
86	999
87	58
98	2
99	3
100	618
101	70
102	40
407	2
408	19
409	4
410	1
466	55
467	13
468	1
