Mass Spectrum: Diacetyl(methoxyimino)methane
Formula: C6H9NO3
CAS: 69740-33-6
Molecular weight: 143
m/z	intensity
27	53
28	50
29	121
30	17
31	25
39	8
40	8
41	30
42	71
43	999
44	66
45	53
54	46
55	17
56	13
57	17
58	66
59	17
100	41
128	25
143	13
144	4
