Mass Spectrum: 4,7,7-Trimethylbicyclo[2.2.1]heptan-2,3-dione, 2-O-ethyloxime
Formula: C12H19NO2
CAS: 69740-39-2
Molecular weight: 209
m/z	intensity
36	56
41	14
42	28
43	84
44	12
47	210
48	126
49	70
50	42
51	11
53	42
54	42
55	322
56	42
57	42
67	142
68	84
69	168
70	56
71	9
79	42
80	84
81	210
82	213
83	999
84	42
85	728
86	28
87	112
88	16
91	28
93	84
94	216
95	462
96	56
97	21
98	28
106	28
107	42
108	143
109	336
110	70
111	14
118	42
119	56
120	112
121	42
122	28
134	28
135	42
136	672
137	70
138	11
152	70
153	56
164	70
165	11
166	42
181	70
182	11
209	352
210	56
211	11
