Mass Spectrum: .alpha.-n-Butylaminomethyl-6-chloro-3-[4-chlorophenyl]-1-naphthalenemethanol
Formula: C22H23Cl2NO
CAS: 69759-51-9
Molecular weight: 387
m/z	intensity
41	44
44	295
45	3
49	2
50	0
51	2
53	1
55	8
57	44
58	1
60	0
63	1
68	1
70	5
71	0
72	1
73	0
74	0
75	2
76	0
77	1
82	0
84	3
86	999
87	48
94	0
95	0
98	3
99	2
101	5
107	3
111	0
113	11
114	1
116	0
118	1
121	1
122	0
123	0
125	1
126	3
127	2
131	3
132	1
133	0
138	0
139	1
146	0
148	1
149	1
150	2
151	2
152	0
160	1
162	2
163	1
164	0
173	0
174	0
175	1
176	1
187	1
189	0
198	0
199	0
200	8
202	39
203	7
204	2
211	0
213	2
215	6
216	0
224	0
226	2
227	0
228	2
229	0
236	8
238	23
240	6
241	1
249	1
251	0
262	2
263	1
264	0
265	1
266	0
272	1
273	0
274	1
275	0
277	1
278	0
285	0
287	0
292	0
297	2
299	2
300	2
301	1
302	1
303	1
387	2
389	1
391	0
