Mass Spectrum: 9-Phenanthrenemethanol, 1,3-dichloro-.alpha.-[2-(dibutylamino)ethyl]-6-(trifluoromethyl)-
Formula: C26H30Cl2F3NO
CAS: 69756-53-2
Molecular weight: 499
m/z	intensity
37	1
38	1
39	14
41	142
42	154
43	108
44	146
45	4
46	1
47	1
53	3
54	6
55	35
56	52
57	136
58	188
59	7
60	2
61	1
67	1
68	6
69	7
70	37
71	17
72	9
74	48
75	2
76	1
81	1
82	5
84	85
85	1
86	97
87	8
88	1
96	3
98	95
100	999
101	81
102	3
103	1
104	1
109	1
110	2
112	73
113	8
114	12
116	254
117	18
118	1
125	1
126	5
127	1
128	12
129	14
130	3
131	1
132	1
140	42
142	767
143	81
144	3
145	1
146	1
149	2
150	2
151	1
152	1
155	39
156	51
157	6
158	1
173	1
174	17
175	13
176	26
177	4
178	1
184	4
185	4
186	5
187	6
188	1
189	11
190	3
191	1
192	5
193	7
194	10
195	2
196	1
197	1
198	2
199	6
200	10
201	5
202	6
203	3
204	2
205	6
206	1
207	15
208	10
209	1
210	22
211	7
212	11
213	7
214	2
215	3
216	2
217	4
218	6
219	6
220	4
221	2
223	20
225	44
226	8
228	39
229	25
230	23
231	6
232	7
233	4
234	2
235	1
236	21
237	6
238	11
239	5
240	1
241	10
242	1
243	59
244	78
245	35
246	39
247	9
248	19
249	15
250	7
251	10
252	8
253	5
254	6
255	3
256	1
257	27
259	34
260	11
261	25
262	9
263	6
264	10
265	4
266	8
267	9
268	6
269	14
270	27
271	15
272	7
273	9
274	4
275	7
278	76
280	496
281	112
282	163
283	51
284	10
285	9
286	7
287	9
288	3
289	4
290	1
291	7
292	1
293	23
294	17
295	40
296	12
297	21
298	5
299	7
300	1
301	14
303	13
304	24
305	18
306	16
307	14
308	8
309	9
310	3
311	3
313	33
314	52
315	42
316	35
317	27
318	19
319	13
320	16
321	10
322	6
323	7
325	17
327	78
328	13
329	47
330	10
331	8
332	2
333	2
334	2
335	3
336	1
337	3
338	1
339	8
340	1
341	40
343	100
344	28
345	54
346	12
347	9
348	2
349	1
351	3
353	8
354	6
355	9
356	8
357	4
358	4
359	1
360	1
368	2
369	3
370	2
371	2
372	1
382	2
383	1
384	1
412	4
413	1
414	2
415	1
416	1
421	2
422	1
423	1
424	1
438	2
439	1
440	2
441	1
442	2
443	1
444	1
454	5
456	377
457	78
458	250
459	64
460	46
461	10
462	1
469	1
470	2
471	1
472	1
477	1
480	8
481	1
482	6
483	2
484	2
485	1
486	1
487	1
499	98
500	35
501	65
502	19
503	12
504	2
505	1
506	1
