Mass Spectrum: Acetamide, N-(phenyl)(2-pyridyl)methyl-
Formula: C14H14N2O
CAS: 69751-37-7
Molecular weight: 226
m/z	intensity
40	57
41	462
42	290
44	999
45	46
49	59
50	257
51	87
52	49
53	10
54	12
55	13
56	42
57	206
58	7
59	28
61	15
63	63
64	15
65	27
73	7
75	16
76	207
77	201
78	182
79	124
80	10
83	26
85	6
86	18
87	19
89	52
91	35
92	5
101	6
102	22
103	9
104	152
105	323
106	624
107	27
112	17
113	39
114	94
115	20
126	14
127	28
128	21
129	13
133	9
135	5
139	179
140	109
141	46
147	92
148	49
153	27
154	8
155	48
156	10
166	166
167	464
168	314
169	36
181	75
182	39
183	988
184	205
185	28
207	9
209	19
211	63
225	87
226	984
227	198
228	15
