Mass Spectrum: 4-Pyrimidineethanamine, n-butyl-.beta.-hydroxy-2,6-bis(4-chlorophenyl)-N-succinoyl-
Formula: C27H28Cl2N2O4
CAS: 69758-31-2
Molecular weight: 514
m/z	intensity
41	185
42	137
43	125
44	657
45	46
47	38
48	15
52	6
53	10
54	14
55	107
56	139
57	111
58	5
60	5
63	11
69	8
70	12
72	13
73	43
74	13
75	28
76	10
77	15
78	2
82	2
85	72
86	999
87	39
88	10
97	2
98	11
99	11
100	11
101	87
102	18
111	11
112	2
113	11
114	28
115	10
125	29
126	51
127	67
128	59
129	2
136	14
137	7
138	14
139	8
140	9
141	9
142	13
145	17
151	5
152	22
153	29
154	11
161	16
162	10
163	19
164	7
165	7
177	4
186	29
187	4
188	10
202	8
218	12
226	2
227	10
228	13
229	6
264	16
265	10
266	7
294	9
298	2
299	8
300	15
301	4
302	9
313	6
324	7
325	8
326	11
327	30
328	72
329	437
330	109
331	277
332	49
333	45
334	9
