Mass Spectrum: 4-Ethylformanilide
Formula: C9H11NO
CAS: 69753-59-9
Molecular weight: 149
m/z	intensity
77	250
91	120
106	999
107	200
120	100
121	30
132	30
134	590
149	700
