Mass Spectrum: Propanoic acid, 3,3'-thiobis-, dibutyl ester
Formula: C14H26O4S
CAS: 6975-31-1
Molecular weight: 290
m/z	intensity
55	751
56	375
57	999
59	858
60	226
61	147
69	206
73	327
74	589
75	79
86	90
87	246
88	147
89	515
104	49
105	658
106	89
114	357
115	159
116	128
119	249
131	59
132	426
133	149
142	287
143	566
159	139
160	88
161	246
162	100
178	148
188	635
215	69
216	39
217	308
234	188
290	377
