Mass Spectrum: 2-Propanone, 1,1-bis(phenylthio)-
Formula: C15H14OS2
CAS: 69753-44-2
Molecular weight: 274
m/z	intensity
43	999
109	350
110	230
121	160
122	70
123	280
218	130
219	20
231	260
232	40
233	20
274	40
275	10
