Mass Spectrum: 2-Propanone, 1-chloro-1-(phenylthio)-
Formula: C9H9ClOS
CAS: 69753-43-1
Molecular weight: 200
m/z	intensity
43	999
45	360
51	280
65	240
69	120
77	310
109	340
110	230
121	340
122	110
124	60
125	30
157	810
158	120
159	290
160	40
164	80
165	120
185	10
200	320
201	40
202	120
203	20
