Mass Spectrum: 3,6-Di-trifluoromethyl-9-[1-hydroxy-3-[N-n-butylamino]propyl]phenanthrene
Formula: C23H23F6NO
CAS: 69756-45-2
Molecular weight: 443
m/z	intensity
42	999
43	74
44	397
45	15
46	3
49	2
50	1
51	4
53	3
54	1
55	30
56	73
57	91
58	17
60	58
63	0
67	1
68	4
69	2
70	22
72	21
73	62
74	13
75	0
78	1
81	0
82	3
84	137
86	611
94	1
97	0
98	3
99	77
100	46
101	15
102	3
105	0
106	3
112	4
115	0
117	0
123	3
128	1
129	6
130	0
132	1
145	2
154	0
168	0
175	0
176	6
177	1
189	4
191	5
194	3
196	5
200	14
202	5
203	1
205	1
207	3
212	1
215	4
217	3
218	0
222	1
223	0
224	0
225	13
226	3
227	4
232	0
234	6
238	2
243	6
244	6
245	7
246	36
247	5
251	4
252	0
256	1
257	2
259	1
263	0
264	4
267	1
269	0
270	2
271	4
272	1
273	2
274	0
275	8
276	1
283	4
284	3
285	0
286	3
287	4
293	3
294	0
295	34
296	5
297	0
301	4
302	0
307	0
309	0
313	11
314	7
315	5
319	3
321	3
322	0
325	4
327	44
328	7
335	2
337	0
339	2
340	2
341	3
342	3
343	7
344	2
351	0
353	5
354	2
355	52
356	12
357	0
369	3
382	35
383	10
384	0
398	3
400	5
406	6
407	1
424	7
425	6
426	1
443	29
444	12
445	2
