Mass Spectrum: 4-Undecanone, 7-ethyl-2-methyl-
Formula: C14H28O
CAS: 6976-00-7
Molecular weight: 212
m/z	intensity
13	1
14	3
15	18
16	2
17	4
18	10
19	5
25	1
26	17
27	314
28	61
29	436
30	14
31	40
32	3
36	2
37	3
38	5
39	133
40	28
41	596
42	99
43	666
44	51
45	207
46	5
47	1
50	4
51	7
52	5
53	45
54	30
55	476
56	118
57	571
58	81
59	20
60	2
63	2
65	8
66	5
67	46
68	25
69	999
70	301
71	169
72	14
73	9
77	7
78	2
79	9
80	3
81	37
82	18
83	529
84	68
85	59
86	44
87	511
88	28
89	2
91	3
93	2
95	20
96	13
97	279
98	104
99	27
100	10
101	10
102	1
104	1
107	1
109	10
110	4
111	65
112	119
113	44
114	5
115	4
118	1
122	1
123	3
124	3
125	15
126	47
127	21
128	6
129	2
137	6
138	4
139	24
140	7
141	2
143	1
152	22
153	9
154	6
155	237
156	26
157	2
167	5
168	3
169	1
172	1
175	1
179	1
181	1
183	1
185	1
194	1
195	43
196	8
212	1
