Mass Spectrum: Octanoic acid, 2-chlorophenyl ester
Formula: C14H19ClO2
CAS: 6976-56-3
Molecular weight: 254
m/z	intensity
25	3
26	16
27	129
28	29
29	176
30	3
39	114
40	22
41	277
42	93
43	410
44	59
50	14
51	20
52	8
53	21
54	10
55	301
56	50
57	999
58	47
59	7
60	122
61	21
62	14
63	40
64	35
65	19
66	5
67	30
68	10
69	56
70	23
71	17
72	5
73	91
74	14
75	24
77	11
78	3
79	11
80	2
81	10
82	25
83	41
84	45
85	21
86	3
87	10
91	9
92	12
93	5
94	27
95	6
96	5
97	19
98	58
99	37
100	4
101	32
102	3
105	5
107	4
108	21
109	30
110	11
111	23
112	4
113	9
115	9
119	4
125	6
126	9
127	504
128	174
129	20
130	43
131	4
134	2
135	9
141	4
151	14
152	3
153	2
155	3
161	3
164	8
170	3
172	2
183	5
190	3
192	5
193	4
254	19
255	3
256	7
257	1
