Mass Spectrum: 1,3-Propanediol, 2-(hydroxymethyl)-2-methyl-, monobenzoate
Formula: C12H16O4
CAS: 69773-90-6
Molecular weight: 224
m/z	intensity
26	28
27	12
28	24
31	60
39	34
40	4
41	46
42	7
43	35
44	5
45	8
50	27
51	90
52	7
53	9
54	14
55	25
56	35
57	102
58	7
59	4
65	3
69	21
70	5
71	54
72	295
73	15
74	7
75	7
76	19
77	318
78	28
79	56
80	3
83	5
84	49
85	3
91	4
104	4
105	999
106	80
107	5
113	2
119	4
122	32
123	512
124	41
125	3
128	3
131	3
135	3
141	2
149	2
167	3
176	107
177	11
194	4
