Mass Spectrum: Ether, hexyl t-butyl
Formula: C10H22O
CAS: 69775-79-7
Molecular weight: 158
m/z	intensity
26	2
27	69
28	30
29	33
30	2
31	28
33	0
37	0
38	0
39	51
40	13
41	222
42	30
43	391
44	19
45	2
51	2
53	8
54	1
55	61
56	123
57	667
58	30
59	999
60	25
61	0
67	3
68	0
69	8
70	1
71	1
72	1
73	4
77	0
79	0
81	1
82	6
83	10
84	5
85	43
86	2
87	18
88	0
95	0
99	1
100	10
101	7
143	103
144	7
