Mass Spectrum: 22.alpha.-Hydroxy-3,4-secostict-4(23)-en-3-oic acid
Formula: C30H50O3
CAS: 69773-95-1
Molecular weight: 458
m/z	intensity
53	105
54	24
55	695
56	49
57	67
59	82
60	15
65	21
66	49
67	515
68	283
69	653
71	96
72	51
73	19
77	121
78	33
79	287
80	91
81	999
82	218
83	218
84	54
85	106
86	11
90	14
91	155
92	43
93	512
94	187
95	791
96	129
97	100
98	18
99	122
101	52
102	10
105	154
106	74
107	646
108	260
109	707
110	89
111	76
117	17
118	14
119	216
120	70
121	417
122	185
123	297
124	45
125	95
126	22
127	40
131	30
132	15
133	156
134	68
135	415
136	118
137	172
138	34
139	91
140	48
141	13
143	22
145	38
146	18
147	126
148	45
151	80
152	43
153	79
154	63
155	48
156	10
159	50
160	15
161	108
162	41
163	228
164	37
165	47
166	21
168	25
169	25
170	35
171	10
173	84
175	105
176	29
177	87
178	20
179	57
180	35
181	69
182	20
187	145
188	44
189	342
190	124
191	161
192	41
193	80
194	32
195	31
201	33
202	25
203	100
204	55
205	75
206	47
207	354
208	104
209	37
210	14
215	22
216	19
217	46
218	16
219	51
220	88
221	242
222	101
223	35
229	60
230	23
231	40
233	24
234	78
235	64
236	119
237	43
238	10
246	15
247	76
248	41
249	26
250	11
257	11
259	10
261	10
275	16
285	11
289	18
303	19
304	10
315	17
316	12
329	24
330	13
331	38
332	10
339	11
341	13
342	14
343	14
347	16
357	115
359	113
360	24
367	13
371	12
372	13
377	35
385	116
386	37
397	66
398	21
425	209
426	57
427	10
440	240
441	81
442	14
443	13
458	116
459	37
