Mass Spectrum: Methyl all-trans-5,6-erythro-5,6-dihydroxy-5,6-dihydroretinoate
Formula: C21H32O4
CAS: 69780-52-5
Molecular weight: 348
m/z	intensity
106	800
125	999
159	430
165	430
183	380
191	250
205	180
255	90
273	180
316	160
317	110
330	50
348	620
