Mass Spectrum: Phosphorimidic trifluoride, methyl-, tetramer
Formula: C4H12F12N4P4
CAS: 69782-83-8
Molecular weight: 468
m/z	intensity
17	19
27	15
28	190
29	190
43	34
69	90
88	60
89	28
107	40
116	689
117	270
118	999
119	22
186	28
190	58
199	32
215	300
234	589
235	18
332	36
