Mass Spectrum: 2,4-Diamino-5-[p-chlorophenylazo]-6-mercaptopyrimidine
Formula: C10H9ClN6S
CAS: 6979-70-0
Molecular weight: 280
m/z	intensity
41	80
42	92
43	999
44	120
45	228
47	32
48	79
49	12
50	87
51	93
52	36
53	84
54	41
55	105
56	31
57	60
58	8
59	20
60	92
61	38
62	52
63	146
64	520
65	199
66	77
67	82
68	113
69	64
70	169
71	64
72	121
73	77
74	45
75	188
76	49
77	34
82	109
83	38
84	90
85	207
86	101
87	32
89	32
90	59
91	54
92	103
95	39
96	92
97	42
98	97
99	551
100	104
101	60
102	44
107	9
108	53
109	65
110	31
111	256
112	49
113	106
114	41
122	9
123	19
124	50
125	39
126	59
127	550
128	106
129	177
130	21
139	38
140	45
141	92
142	117
143	41
144	72
146	31
152	44
154	53
155	9
157	41
160	103
162	21
167	40
169	128
174	11
192	80
194	27
204	49
209	21
216	30
217	30
224	43
234	19
236	10
237	38
239	18
251	506
252	89
253	171
254	40
263	44
279	147
280	260
281	53
282	87
