Mass Spectrum: 1-Acetoxy-1-(isopropyl)-3-phenylthio-2-propanone
Formula: C14H18O3S
CAS: 69798-61-4
Molecular weight: 266
m/z	intensity
39	60
41	50
42	10
43	999
44	30
45	110
50	10
51	40
55	50
56	10
57	20
65	60
66	30
69	30
71	10
73	20
77	40
78	10
79	10
83	40
84	10
85	10
86	10
91	20
105	20
108	10
109	100
110	100
111	10
115	150
116	10
119	20
121	10
122	10
123	150
124	30
125	10
143	40
150	100
151	10
152	10
154	15
163	10
178	20
179	5
180	5
181	5
184	5
185	10
186	5
206	5
266	40
267	10
268	5
