Mass Spectrum: N-(Dimethylthiophosphinyl)-2-butylamine
Formula: C6H16NPS
CAS: 69790-70-1
Molecular weight: 165
m/z	intensity
55	80
56	60
65	60
72	999
76	70
93	380
94	540
132	120
136	50
165	200
