Mass Spectrum: N-Cyclohexylurea
Formula: C7H14N2O
CAS: 698-90-8
Molecular weight: 142
m/z	intensity
15	9
16	3
17	7
18	21
26	5
27	58
28	116
29	53
30	110
31	4
37	1
38	3
39	71
40	12
41	135
42	77
43	319
44	108
45	6
46	2
50	3
51	8
52	6
53	31
54	61
55	111
56	999
57	81
58	6
60	4
61	958
62	20
63	4
65	5
66	4
67	74
68	14
69	25
70	129
71	19
72	1
73	36
74	18
75	1
77	9
78	3
79	18
80	6
81	42
82	70
83	26
84	13
85	6
86	36
87	8
88	3
94	2
95	1
96	7
97	9
98	92
99	570
100	54
101	8
112	1
113	47
114	8
124	2
125	2
127	16
128	1
141	6
142	609
143	60
144	4
