Mass Spectrum: Bicyclo[3.1.0]hexan-2-ol, acetate, (1.alpha.,2.beta.,5.alpha.)-
Formula: C8H12O2
CAS: 698-56-6
Molecular weight: 140
m/z	intensity
12	4
13	14
14	57
15	220
16	4
17	1
18	4
25	2
26	31
27	198
28	44
29	83
30	3
31	24
32	0
37	9
38	24
39	204
40	32
41	187
42	45
43	999
44	31
45	27
46	0
49	2
50	21
51	39
52	27
53	85
54	32
55	57
56	13
57	116
58	14
59	15
60	2
61	7
62	2
63	6
64	1
65	20
66	19
67	46
68	11
69	25
70	66
71	26
72	9
73	4
74	2
75	3
77	42
78	31
79	288
80	512
81	157
82	13
83	43
84	5
85	7
86	2
87	0
91	1
92	0
93	2
94	4
95	13
96	5
97	40
98	90
99	51
100	3
107	0
108	0
109	1
110	1
111	2
112	10
113	1
125	1
139	1
140	6
