Mass Spectrum: 2-[(E)-3-Bromo-1-propenyl]-2-methyl-1,3-dioxolane
Formula: C7H11BrO2
CAS: 69803-53-8
Molecular weight: 206
m/z	intensity
39	200
43	390
55	160
67	110
68	140
83	150
87	999
112	310
119	30
121	30
127	130
147	30
149	30
191	50
193	50
