Mass Spectrum: 4a.alpha.,4b.beta.-Gibbane-1.alpha.,10.beta.-dicarboxylic acid, 4a-formyl-7-hydroxy-1-methyl-8-methylene-, dimethyl ester
Formula: C22H30O6
CAS: 6980-45-6
Molecular weight: 390
m/z	intensity
41	999
42	140
43	940
44	390
45	100
46	10
47	10
48	10
49	20
50	70
51	90
52	50
53	220
54	90
55	990
56	210
57	720
58	70
59	390
60	50
61	30
63	30
64	20
65	150
66	50
67	390
68	140
69	820
70	160
71	510
72	220
73	410
74	140
75	290
76	40
77	60
78	30
79	510
81	510
82	220
83	410
84	140
85	390
86	40
87	60
88	30
89	40
90	30
91	540
92	100
93	310
94	120
95	570
96	180
97	410
98	70
99	100
100	50
101	150
102	30
103	90
104	70
105	400
106	90
107	290
108	190
109	340
110	150
111	270
112	80
113	100
114	50
115	160
116	100
117	200
118	100
119	140
120	140
121	450
122	110
123	210
124	90
125	140
126	70
127	100
128	170
129	260
130	110
131	250
132	130
133	220
134	170
135	760
136	210
137	400
138	80
139	120
140	40
141	160
142	110
143	180
144	130
145	280
146	110
147	280
148	100
149	210
150	90
151	230
152	70
153	110
154	90
155	220
156	100
157	160
158	120
159	340
160	100
161	100
162	60
163	110
164	130
165	160
166	150
167	150
168	70
169	130
170	60
171	160
172	60
173	180
174	70
175	100
176	90
177	120
178	60
179	110
180	60
181	100
182	60
183	90
184	80
185	140
186	70
187	130
188	90
189	150
190	80
191	130
192	50
193	120
194	70
195	90
196	50
197	150
198	30
199	190
200	80
201	130
202	60
203	70
204	30
205	100
206	50
207	150
208	90
209	110
210	40
211	90
212	50
213	150
214	80
215	160
216	50
217	120
218	120
219	120
220	30
221	150
222	40
223	80
224	90
225	210
226	60
227	100
228	40
229	60
230	30
231	80
232	50
233	100
234	30
235	40
236	30
237	90
238	30
239	60
240	30
241	620
242	500
243	360
244	110
245	50
246	50
247	50
248	20
249	30
250	10
251	50
252	70
253	160
254	50
255	80
256	30
257	40
258	30
259	130
260	60
261	100
262	30
263	30
264	20
265	30
266	20
267	50
268	30
269	160
270	390
271	190
272	70
273	80
274	70
275	30
276	20
277	20
278	10
279	10
280	60
281	100
282	60
283	70
284	240
285	100
286	40
287	40
288	30
289	30
290	10
291	20
292	10
293	40
294	20
295	50
296	50
297	70
298	310
300	80
302	480
303	110
304	30
311	20
312	420
313	140
314	100
315	40
325	20
326	140
327	80
328	60
329	60
330	480
331	150
332	40
333	10
340	100
341	50
342	30
343	30
344	220
345	70
346	10
353	30
354	20
355	60
356	50
357	40
358	320
359	140
388	10
389	10
390	30
391	10
