Mass Spectrum: 2-Methyl-7-phenyl-2,6-heptanediol
Formula: C14H22O2
CAS: 69815-09-4
Molecular weight: 222
m/z	intensity
41	331
43	999
44	92
45	53
47	6
51	69
52	10
53	40
55	144
57	392
59	374
60	11
61	3
63	43
65	196
66	3
67	41
69	375
71	150
72	7
73	9
74	3
75	6
77	64
78	9
79	22
81	13
83	33
84	2
85	17
86	0
87	4
89	18
91	686
92	686
93	55
95	991
96	48
97	20
99	27
100	1
103	65
104	74
105	46
107	74
108	3
109	2
111	4
113	398
114	9
115	60
117	109
118	83
119	5
120	7
121	14
122	1
127	1
128	3
129	25
131	186
132	13
133	2
135	3
143	7
145	14
146	15
147	3
155	1
157	1
171	15
173	14
174	1
175	2
185	0
187	3
189	28
190	11
191	18
192	2
205	19
206	2
207	6
