Mass Spectrum: Benzeneethanamine, N-(2-furanylmethylene)-
Formula: C13H13NO
CAS: 69819-53-0
Molecular weight: 199
m/z	intensity
25	1
26	14
27	82
28	38
29	1
30	5
36	0
37	4
38	13
39	84
41	25
42	9
45	1
50	20
51	69
52	55
53	115
54	10
55	4
62	4
63	16
64	6
65	43
66	3
67	2
68	4
74	4
75	3
76	5
77	54
78	25
79	27
80	16
81	219
82	12
89	5
90	4
91	64
92	6
94	6
95	7
96	3
102	4
103	21
104	21
105	20
106	3
107	4
108	999
109	71
110	3
115	1
117	4
118	1
128	3
130	2
143	1
169	1
170	16
171	8
198	22
199	83
200	14
