Mass Spectrum: 2-Acetamido-1,3-thiazole-5-sulfonyl chloride
Formula: C5H5ClN2O3S2
CAS: 69812-30-2
Molecular weight: 240
m/z	intensity
33	14
34	13
35	83
36	8
37	29
38	32
39	73
40	98
41	131
42	205
43	999
44	197
45	310
46	27
47	17
48	141
49	9
50	16
51	13
52	8
53	84
54	71
55	208
56	56
57	466
58	65
59	54
60	123
61	7
62	7
63	4
64	95
65	10
66	9
67	14
68	8
69	31
70	138
71	389
72	127
73	48
74	9
75	3
76	30
77	12
78	3
79	29
80	46
81	29
82	58
83	36
84	13
85	10
86	4
87	2
88	5
89	7
91	5
92	11
93	2
94	11
95	4
96	3
97	10
98	423
99	305
100	85
101	17
102	2
103	1
104	10
105	5
106	1
109	2
110	1
111	3
112	31
113	5
114	2
115	78
116	3
117	4
123	2
124	2
125	2
129	1
131	1
134	23
135	1
136	7
141	6
147	21
148	15
163	421
164	24
165	40
166	2
172	10
198	469
199	26
200	185
201	8
202	12
205	70
206	5
207	6
240	181
241	14
242	76
243	6
244	6
