Mass Spectrum: 4-Carbamoyl-2,2,5,5-tetramethyl-3-imidazoline-3-oxide-1-oxyl
Formula: C8H14N3O3
CAS: 69826-43-3
Molecular weight: 200
m/z	intensity
31	92
32	81
38	44
39	439
40	133
41	813
42	999
43	662
50	103
51	26
52	56
53	90
54	212
55	409
56	817
57	61
58	522
59	607
66	62
67	129
68	503
69	559
70	54
72	60
73	73
74	233
80	35
81	32
82	95
83	250
84	280
85	41
88	129
94	52
95	32
96	26
98	73
107	34
108	110
110	82
111	630
112	101
113	32
125	36
127	425
128	238
136	63
138	101
139	78
141	257
142	27
151	40
155	191
156	136
161	40
168	185
169	56
170	116
185	220
200	782
201	114
