Mass Spectrum: .delta.2-Tetrazaboroline, 1-methyl-4-phenyl-
Formula: C7H9BN4
CAS: 6982-52-1
Molecular weight: 160
m/z	intensity
14	10
15	60
16	10
17	20
18	80
25	10
26	40
27	100
28	250
29	30
30	170
31	70
36	30
37	120
38	160
39	340
40	270
41	150
42	360
43	70
44	30
45	10
47	10
48	10
49	60
50	180
51	240
52	130
53	50
54	50
55	40
56	20
57	40
58	30
59	10
60	20
61	50
62	70
63	140
64	130
65	300
66	260
67	200
68	20
69	10
70	20
71	50
72	10
73	20
74	50
75	90
76	170
77	240
78	110
79	70
80	50
81	60
82	20
83	40
84	20
85	30
86	10
87	10
88	10
89	30
90	60
91	170
92	60
93	220
94	40
95	10
97	10
98	20
99	10
100	10
101	40
102	310
103	999
104	380
105	100
106	20
113	30
114	60
115	10
116	30
117	90
118	10
119	10
120	40
121	120
122	180
123	50
127	20
128	30
129	10
130	70
131	330
132	480
133	40
154	10
159	190
160	800
161	70
