Mass Spectrum: 3-Dimethylaminocyclohexanol (cis)
Formula: C8H17NO
CAS: 6982-36-1
Molecular weight: 143
m/z	intensity
41	89
42	200
43	71
44	123
46	7
55	33
56	114
57	24
58	262
68	14
69	9
70	157
71	611
72	125
77	5
79	7
81	7
82	16
83	7
84	624
85	58
98	43
100	999
101	35
124	11
126	11
128	7
143	586
144	31
