Mass Spectrum: Scyllo-inositol di-butaneboronate di-trimethylsilyl ether
Formula: C20H42B2O6Si2
CAS: 69822-65-7
Molecular weight: 456
m/z	intensity
26	11
27	5
28	69
29	12
31	6
39	7
41	25
42	4
43	24
44	6
45	48
46	8
47	9
49	8
50	4
51	6
53	22
54	7
55	22
56	0
57	8
58	8
59	28
60	3
61	13
65	16
66	1
67	8
68	2
69	15
70	15
71	9
72	16
73	999
74	95
75	108
76	9
77	7
78	2
79	9
80	15
81	60
82	38
83	99
84	12
85	18
87	21
89	7
90	7
91	10
93	5
94	7
95	9
96	10
97	19
98	9
99	17
100	19
101	51
102	18
103	65
104	9
105	8
107	9
108	17
109	61
111	19
112	2
113	14
115	30
116	19
117	49
118	0
119	15
121	12
122	15
123	14
124	7
125	16
126	8
127	34
128	19
129	181
130	28
131	37
132	13
133	73
134	16
135	7
136	10
137	16
138	99
139	375
140	42
141	15
142	30
143	70
144	11
145	16
147	567
148	108
149	58
150	15
151	9
152	8
153	25
154	13
155	50
156	47
157	156
158	37
159	27
160	10
161	10
163	9
164	5
165	36
166	18
167	15
168	11
169	34
170	44
171	94
172	21
173	11
174	9
175	28
176	13
177	8
178	7
179	12
180	8
181	16
182	12
183	45
184	12
185	24
186	13
187	41
188	17
189	90
190	15
191	47
192	39
193	103
194	24
195	9
196	4
197	27
198	16
199	43
200	10
201	8
203	25
204	19
205	11
207	11
209	3
210	8
211	10
212	8
213	36
214	19
215	7
217	60
218	17
219	13
220	53
221	17
222	10
223	3
224	15
225	25
226	40
227	105
228	33
229	13
230	57
231	188
232	49
233	23
234	9
237	7
239	32
240	67
241	39
242	15
243	10
245	9
246	8
248	10
249	15
252	18
253	70
254	89
255	29
256	11
257	2
259	11
260	9
263	4
265	10
266	21
267	55
268	22
269	10
272	8
273	22
274	8
275	7
276	18
277	35
278	9
280	1
281	5
282	18
283	16
285	5
286	6
289	9
298	3
299	7
300	11
301	15
302	8
304	0
305	7
309	13
310	5
311	8
314	24
315	69
316	15
317	9
322	6
328	10
329	16
330	10
337	8
338	12
339	23
340	13
341	13
342	8
346	6
350	9
351	14
352	15
353	34
354	13
355	12
356	11
357	26
358	8
364	8
365	8
366	7
375	6
393	6
398	2
399	11
401	8
407	6
413	5
431	0
439	21
440	82
441	184
442	58
443	19
444	10
455	45
456	108
457	41
458	15
