Mass Spectrum: L-Valine, N-(N-acetyl-L-valyl)-, butyl ester
Formula: C16H30N2O4
CAS: 69833-62-1
Molecular weight: 314
m/z	intensity
14	9
15	28
16	7
18	7
26	11
27	163
28	99
29	216
30	45
31	9
32	11
37	4
38	9
39	123
40	19
41	285
42	35
43	282
44	16
45	4
50	4
51	7
52	4
53	16
54	14
55	154
56	85
57	149
58	45
59	7
60	19
68	4
69	28
70	30
71	19
72	999
73	52
74	7
76	2
77	4
82	7
83	14
84	7
85	11
87	7
98	16
99	11
100	92
101	7
104	4
113	21
114	669
115	330
116	28
117	2
126	2
127	23
128	4
130	4
141	2
142	71
143	7
149	14
154	7
155	4
156	2
158	4
159	14
170	2
172	7
173	4
174	11
213	38
214	7
229	14
241	11
251	4
263	4
272	11
273	2
299	2
314	23
315	4
