Mass Spectrum: Androstan-3-one, 17-hydroxy-, O-methyloxime, (5.beta.,17.beta.)-, TMS derivative
Formula: C23H41NO2Si
CAS: 69833-83-6
Molecular weight: 391
m/z	intensity
67	16
69	44
70	38
71	13
73	89
74	11
75	68
79	18
81	55
82	12
83	11
86	17
87	20
91	27
93	34
94	29
95	53
96	50
97	17
100	14
101	40
103	10
105	35
106	16
107	49
108	31
109	42
110	28
111	15
112	21
113	43
115	50
116	90
117	56
118	14
119	36
120	27
121	44
122	39
123	52
124	10
125	12
126	249
127	26
129	999
130	238
131	78
132	22
133	40
134	28
135	36
136	24
137	14
138	16
139	41
140	39
143	16
145	34
146	18
147	53
148	76
149	112
150	21
151	13
152	30
153	108
154	28
155	12
157	19
158	13
159	25
160	28
161	49
162	54
163	24
165	11
166	24
169	12
171	20
172	18
173	26
174	21
175	21
176	12
185	17
186	17
187	34
188	24
189	15
190	11
191	7
192	36
193	17
197	11
198	11
199	23
200	21
201	36
202	23
203	12
208	10
211	10
212	15
213	52
214	42
215	29
216	18
221	5
225	10
226	32
227	20
228	45
229	18
230	51
231	20
232	14
240	11
241	10
242	28
243	17
244	46
245	13
246	23
253	31
254	93
255	25
256	23
258	33
259	36
260	116
261	33
262	51
263	11
268	20
269	19
270	171
271	50
272	27
273	62
274	18
275	68
276	17
286	304
287	68
288	12
300	78
301	230
302	59
303	17
332	10
346	27
347	10
360	167
361	96
362	34
363	13
376	187
377	61
378	14
390	16
391	476
392	160
393	41
394	10
