Mass Spectrum: 2,5-Piperazinediacetamide, N,N'-dihydroxy-3,6-dioxo-N,N'-dipropyl-
Formula: C14H24N4O6
CAS: 69833-34-7
Molecular weight: 344
m/z	intensity
60	999
67	700
68	470
69	910
70	640
71	560
85	260
86	360
91	600
95	560
97	580
111	300
112	140
113	120
125	490
139	310
153	230
167	500
183	330
195	440
212	270
220	370
225	260
226	230
269	230
312	200
328	70
344	40
