Mass Spectrum: Cyclopentane, 1,2-dimethyl-3-(1-methylethenyl)-
Formula: C10H18
CAS: 6983-03-5
Molecular weight: 138
m/z	intensity
24	1
25	3
26	27
27	377
28	40
29	299
30	9
37	5
38	19
39	454
40	111
41	821
42	141
43	100
44	3
45	1
49	1
50	22
51	65
52	38
53	267
54	66
55	571
56	66
57	56
58	4
62	6
63	19
64	5
65	69
66	60
67	844
68	999
69	665
70	189
71	13
72	1
75	3
77	80
78	18
79	134
80	30
81	906
82	315
83	129
84	14
85	4
91	47
92	8
93	33
94	79
95	935
96	504
97	49
98	3
103	2
105	7
107	9
108	4
109	82
110	10
111	1
121	4
123	307
124	33
137	6
138	108
139	17
