Mass Spectrum: (R,Z)-2-Methyl-6-(4-methylcyclohexa-1,4-dien-1-yl)hept-2-en-1-ol
Formula: C15H24O
CAS: 698365-10-5
Molecular weight: 220
m/z	intensity
26	1
27	24
28	4
29	46
30	2
31	14
38	2
39	68
40	13
41	161
42	12
43	149
44	6
45	8
50	5
51	26
52	12
53	68
54	10
55	146
56	22
57	36
58	13
59	3
62	2
63	11
64	4
65	61
66	13
67	81
68	104
69	66
70	11
71	46
73	1
74	1
75	2
76	2
77	209
78	44
79	176
80	37
81	70
82	11
83	49
84	23
85	3
87	1
89	5
90	2
91	289
92	157
93	457
94	64
95	71
96	9
97	19
98	3
101	1
102	4
103	30
104	13
105	310
106	58
107	201
108	26
109	11
115	28
116	9
117	56
118	30
119	999
120	180
121	240
122	72
123	11
124	2
125	4
126	3
127	3
128	7
129	9
130	6
131	184
132	572
133	110
134	105
135	48
136	5
141	2
142	1
143	6
144	4
145	168
146	42
147	18
148	8
149	4
150	2
152	2
156	1
159	33
160	9
161	14
163	3
164	1
165	1
172	1
173	5
174	3
175	1
177	1
187	32
188	5
189	5
190	1
201	1
202	16
203	3
220	7
221	1
