Mass Spectrum: N-Heptyl-3-(3-[2-(heptylmethylcarbamoyl)ethoxy]-2,2-dimethylpropoxy)-N-methylpropionamide
Formula: C27H54N2O4
CAS: 69844-41-3
Molecular weight: 470
m/z	intensity
26	8
27	154
29	169
30	49
31	34
33	3
36	3
37	2
38	3
39	53
40	10
41	226
42	118
43	256
44	999
45	115
46	4
47	1
49	2
50	3
51	4
52	1
53	12
54	9
55	371
56	85
57	314
58	149
59	12
60	6
61	1
63	1
64	2
65	3
66	2
67	9
68	17
69	90
70	42
71	34
72	26
73	75
74	7
75	2
76	3
77	5
78	2
79	3
80	1
81	8
82	5
83	12
84	34
85	34
86	84
87	62
88	10
89	1
90	1
91	6
92	1
93	4
94	1
95	6
96	4
97	14
98	400
99	143
100	63
101	72
102	24
103	5
104	17
105	4
106	1
107	2
108	1
109	3
110	5
111	5
112	57
113	26
114	73
115	22
116	58
117	29
118	14
119	3
120	1
121	3
122	4
123	2
124	4
125	3
126	75
127	24
128	157
129	29
130	73
131	12
132	7
133	2
134	1
135	2
137	1
139	2
140	37
141	25
142	25
143	5
144	15
145	3
146	2
147	2
148	2
149	71
150	9
151	1
152	3
153	2
154	32
155	9
156	311
157	33
158	15
159	3
160	2
161	1
166	1
167	3
168	13
169	3
170	10
171	6
172	12
173	5
174	3
175	1
176	2
180	2
181	3
182	25
183	29
184	441
185	102
186	14
187	18
188	6
189	1
190	1
196	1
197	2
198	3
199	6
200	470
201	95
202	275
203	45
204	5
205	5
206	1
207	1
210	2
211	2
212	10
213	3
214	134
215	22
216	13
217	2
218	1
219	1
223	5
224	1
230	16
231	2
232	1
242	5
243	1
244	8
245	1
254	5
255	2
256	17
257	25
258	11
259	3
260	1
262	3
269	12
270	7
271	59
272	14
273	2
274	1
276	2
286	445
287	110
288	48
289	8
290	1
314	12
315	5
316	4
340	3
341	1
342	97
343	22
344	2
356	2
370	1
384	0
385	3
398	9
399	2
412	7
413	2
414	0
426	10
427	3
440	14
441	4
442	0
455	5
456	2
469	6
470	55
471	17
472	4
