Mass Spectrum: 1-Methylpyrazol-4-amine
Formula: C4H7N3
CAS: 69843-13-6
Molecular weight: 97
m/z	intensity
15	28
26	13
27	29
28	9
29	17
36	1
37	6
38	55
39	69
40	203
41	243
42	999
43	557
44	39
45	7
49	11
50	2
51	23
52	31
53	79
54	28
55	161
56	26
57	6
65	2
66	10
67	11
68	15
69	271
70	637
71	24
77	1
80	3
81	4
82	23
83	2
96	17
97	923
98	52
99	4
