Mass Spectrum: cis-4,6-Dimethylcyclohexane-1,3-dione
Formula: C8H12O2
CAS: 69841-15-2
Molecular weight: 140
m/z	intensity
33	0
34	0
35	1
36	0
37	1
38	7
39	197
40	44
41	336
42	250
43	135
44	7
45	3
46	0
47	0
48	0
49	0
50	5
51	13
52	8
53	53
54	22
55	270
56	999
57	67
58	8
59	1
60	0
61	0
62	0
63	1
64	0
65	6
66	3
67	18
68	10
69	216
70	168
71	21
72	3
73	0
74	0
75	0
76	0
77	4
78	0
79	8
80	1
81	3
82	2
83	14
84	14
85	2
86	0
87	0
88	0
89	0
90	0
91	1
92	0
93	1
94	0
95	3
97	158
98	74
99	4
100	0
101	0
102	0
103	0
104	0
105	0
106	0
107	0
108	0
109	1
110	0
111	8
112	74
113	6
114	0
115	0
116	0
117	0
119	0
120	0
121	0
122	0
123	1
124	0
125	1
126	0
127	0
128	0
129	0
130	0
131	0
133	0
134	0
135	0
136	0
137	0
140	81
141	9
142	0
