Mass Spectrum: 9-Oxabicyclo[6.1.0]nonan-4-ol
Formula: C8H14O2
CAS: 69853-85-6
Molecular weight: 142
m/z	intensity
26	84
27	708
28	4
29	876
30	78
31	341
35	8
36	17
37	24
38	56
39	685
40	177
41	999
42	418
43	749
44	560
45	155
46	10
47	10
48	8
50	38
51	91
52	43
53	268
54	395
55	750
56	157
57	789
58	230
59	31
60	62
61	8
62	9
63	20
64	8
65	58
66	77
67	423
68	318
69	264
70	316
71	240
72	48
73	38
74	15
75	10
77	69
78	40
79	138
80	307
81	771
82	179
83	231
84	114
85	168
86	55
87	22
88	9
91	42
92	18
93	38
94	37
95	210
96	220
97	141
98	108
99	71
100	24
101	16
105	15
106	34
107	25
108	25
109	41
110	16
111	29
112	13
113	34
114	36
115	9
120	8
121	19
122	27
123	29
124	168
125	22
126	8
141	8
142	175
143	20
