Mass Spectrum: .beta.-[3-[Diethylaminopropyl]amino]propionitrile
Formula: C10H21N3
CAS: 69852-53-5
Molecular weight: 183
m/z	intensity
41	38
42	108
43	32
44	169
45	12
46	5
47	1
50	6
51	7
54	48
55	10
56	66
57	24
58	198
59	12
60	3
64	16
68	8
70	93
71	17
72	313
73	20
74	41
81	4
82	6
83	37
84	45
85	12
86	999
87	58
88	6
90	2
91	3
95	1
97	16
98	36
99	4
100	34
101	6
109	6
110	5
111	10
112	6
113	17
114	1
115	7
123	12
129	5
136	9
143	19
154	12
159	2
167	7
168	3
182	7
183	37
184	5
