Mass Spectrum: Acetic acid, [4-methoxy-3-(trimethylsiloxy)phenyl](trimethylsiloxy)-, methyl ester
Formula: C16H28O5Si2
CAS: 69867-74-9
Molecular weight: 356
m/z	intensity
40	20
42	6
43	34
44	40
45	195
46	13
47	16
51	6
53	5
57	9
58	16
59	110
60	10
61	8
63	8
69	6
72	8
73	999
74	77
75	80
76	10
77	18
83	6
89	110
90	14
91	14
103	6
119	6
121	6
126	7
133	8
135	11
137	8
149	9
151	6
163	21
165	13
166	6
177	6
179	17
180	6
191	6
192	8
193	39
194	97
195	18
196	5
206	6
207	12
209	44
210	9
223	54
224	12
225	6
237	8
239	9
251	7
265	7
267	55
268	16
269	6
297	789
298	202
299	90
300	17
313	24
314	8
341	59
342	17
343	6
356	32
357	9
