Mass Spectrum: 1H-Imidazole-4-ethanamine, .alpha.-methyl-
Formula: C6H11N3
CAS: 6986-90-9
Molecular weight: 125
m/z	intensity
28	70
29	20
30	20
39	30
41	50
42	60
43	30
44	579
52	20
53	20
54	90
55	90
56	20
69	20
80	20
81	230
82	999
83	90
110	20
124	10
125	20
