Mass Spectrum: (4aS,8aR)-3,8a-Dimethyl-5-methylene-4,4a,5,6,7,8,8a,9-octahydronaphtho[2,3-b]furan
Formula: C15H20O
CAS: 6989-21-5
Molecular weight: 216
m/z	intensity
27	19
29	19
31	2
38	3
39	64
40	13
41	80
50	7
51	33
52	17
53	50
54	6
55	33
57	4
62	3
63	23
64	13
65	65
66	18
67	32
72	5
73	3
74	4
75	5
76	6
77	145
78	35
79	177
80	30
83	6
87	4
89	6
91	148
92	24
93	85
94	13
95	51
96	13
102	9
103	26
104	11
105	67
107	20
108	999
109	157
110	26
111	13
114	1
115	73
116	26
117	47
118	11
119	34
120	27
121	98
122	30
123	14
127	21
128	61
129	52
130	14
131	73
132	18
141	25
142	17
143	29
144	11
145	192
146	37
147	31
152	3
153	8
154	4
155	17
156	7
157	17
158	12
159	90
160	32
164	17
165	5
167	2
168	7
169	4
170	5
171	7
172	7
173	45
174	13
183	23
184	3
185	6
186	4
187	32
188	14
198	2
201	146
202	21
203	2
215	15
216	565
217	90
218	8
