Mass Spectrum: Spiro[5.5]undec-1-ene
Formula: C11H18
CAS: 699-56-9
Molecular weight: 150
m/z	intensity
32	51
38	9
39	293
40	59
41	515
42	59
43	79
44	178
45	33
51	19
52	75
53	39
54	178
55	115
56	277
57	27
58	19
63	15
64	4
65	99
66	91
67	539
68	228
69	107
70	11
71	11
73	23
77	230
78	107
79	999
80	202
81	456
82	226
83	75
84	4
85	4
91	317
92	89
93	287
94	767
95	194
96	172
97	27
103	11
104	15
105	79
106	27
107	872
108	325
109	198
110	25
119	13
120	4
121	261
122	119
123	7
135	242
136	27
148	19
150	654
151	79
