Mass Spectrum: 1-Oxaspiro(4,5)decan-2-one
Formula: C9H14O2
CAS: 699-61-6
Molecular weight: 154
m/z	intensity
26	18
27	153
28	126
29	67
30	2
31	4
34	3
35	2
36	2
37	2
38	7
39	132
40	32
41	172
42	110
43	63
44	6
45	5
46	2
48	8
49	2
50	7
51	21
52	14
53	53
54	71
55	206
56	161
57	30
58	6
59	3
60	2
61	1
62	4
63	8
64	3
65	17
66	10
67	116
68	30
69	50
70	57
71	18
72	5
73	10
74	3
75	2
76	3
77	23
78	8
79	34
80	14
81	142
82	45
83	133
84	18
85	13
86	2
87	2
88	2
89	3
90	2
91	12
92	5
93	19
94	40
95	23
96	5
97	26
98	272
99	165
100	15
102	4
103	3
104	3
105	2
107	3
108	5
109	3
110	14
111	999
112	176
113	20
114	4
117	2
118	3
120	2
121	2
122	2
123	2
124	3
125	119
126	60
127	7
128	2
135	6
136	6
137	2
139	3
152	4
153	2
154	322
155	44
156	4
