Mass Spectrum: Cyclobuta[1,2:3,4]dicyclooctene-1,7(2H,6bH)-dione, dodecahydro-, (6a.alpha.,6b.alpha.,12a.alpha.,12b.beta.)-
Formula: C16H24O2
CAS: 69926-83-6
Molecular weight: 248
m/z	intensity
24	0
26	59
27	236
28	114
29	230
30	6
31	4
36	0
37	2
38	6
39	231
40	85
41	587
42	92
43	140
44	3
45	4
46	1
48	1
49	1
50	10
51	32
52	35
53	190
54	118
55	550
56	45
57	50
58	9
59	2
60	5
61	1
62	3
63	9
64	0
65	74
66	82
67	440
68	134
69	108
70	24
71	27
72	3
73	13
74	2
75	8
76	2
77	183
78	59
79	370
80	167
81	429
82	121
83	107
84	55
85	19
86	2
87	3
89	7
90	1
91	216
92	56
93	179
94	90
95	326
96	128
97	89
98	93
99	25
100	4
101	1
103	8
104	19
105	78
106	51
107	201
108	86
109	131
110	49
111	48
112	52
113	4
115	7
116	6
117	37
118	16
119	51
120	39
121	114
122	51
123	79
124	999
125	391
126	38
127	6
128	3
129	9
130	6
131	68
132	31
133	104
134	43
135	97
136	49
137	81
138	72
139	13
140	1
141	4
142	2
143	3
144	5
145	79
146	38
147	74
148	35
149	110
150	66
151	93
152	25
153	6
154	1
155	2
156	1
157	5
158	6
159	67
160	21
161	27
162	10
163	87
164	29
165	30
166	9
167	8
168	0
169	5
170	3
171	7
172	6
173	30
174	34
175	24
176	12
177	87
178	27
179	9
180	5
181	1
183	2
184	4
185	2
186	2
187	103
188	29
189	12
190	10
191	62
192	21
193	15
194	5
195	2
196	1
198	0
199	0
201	20
202	37
203	11
204	5
205	100
206	16
207	7
208	1
212	5
213	2
215	8
216	1
219	12
220	48
221	7
222	0
223	0
224	1
229	3
230	60
231	37
232	9
233	6
234	0
247	1
248	87
249	21
