Mass Spectrum: 1,5-cis,8-cis-Undecatriene-3,7-diol bis(trimethylsilyl)ether
Formula: C17H34O2Si2
CAS: 69948-50-1
Molecular weight: 326
m/z	intensity
29	20
41	37
45	136
47	42
59	40
67	24
73	999
74	80
75	212
79	55
91	33
93	27
129	673
130	84
131	183
132	22
147	52
157	76
