Mass Spectrum: 2-Hexenoic acid, 3,4,4-trimethyl-5-oxo-, (E)-
Formula: C9H14O3
CAS: 6994-95-2
Molecular weight: 170
m/z	intensity
26	4
27	104
28	13
29	73
31	10
38	20
39	282
40	60
41	330
42	56
43	913
44	20
45	56
50	13
51	38
52	16
53	113
54	29
55	149
56	14
57	26
58	6
59	213
60	13
63	13
64	2
65	46
66	26
67	229
68	37
69	80
70	66
71	37
73	10
77	24
78	6
79	53
80	13
81	146
82	104
83	344
84	26
85	46
86	13
87	26
93	4
95	406
96	26
97	10
99	10
100	6
108	9
109	104
110	999
111	93
112	6
113	206
114	13
125	16
127	29
128	233
129	16
153	10
