Mass Spectrum: Benzo[3,4]cyclobuta[1,2-b]-1,4-dioxin, 2,3,4a,4b,8a,8b-hexahydro-
Formula: C10H12O2
CAS: 69956-61-2
Molecular weight: 164
m/z	intensity
39	70
51	60
52	40
58	270
65	50
73	440
78	80
86	999
91	150
164	10
