Mass Spectrum: p-Chloro-N-ethylbenzylamine
Formula: C9H12ClN
CAS: 69957-83-1
Molecular weight: 169
m/z	intensity
42	165
43	54
44	354
45	15
47	49
49	195
50	335
51	318
52	43
53	27
54	8
56	108
58	324
60	9
61	36
62	84
63	293
65	110
66	3
67	6
69	4
70	25
72	20
73	73
74	92
75	295
77	342
79	118
80	2
81	1
82	1
83	2
84	82
86	104
87	25
89	378
90	41
91	90
92	18
94	6
95	1
96	6
97	4
99	107
100	38
102	40
104	34
105	14
107	66
111	187
112	87
113	81
114	31
115	16
117	14
118	6
120	8
121	0
125	999
127	387
129	3
130	9
132	6
134	72
137	8
139	280
140	92
141	86
142	43
143	3
144	10
145	1
147	0
149	3
152	8
153	7
154	180
155	43
156	62
157	7
158	2
167	11
168	76
169	89
170	23
171	28
172	5
175	0
