Mass Spectrum: Cyclobuta[1,2-d:3,4-d']bis[1,3]dioxole, tetrahydro-, (3a.alpha.,3b.alpha.,6a.alpha.,6b.alpha.)-
Formula: C6H8O4
CAS: 69956-59-8
Molecular weight: 144
m/z	intensity
29	143
30	28
31	70
39	18
55	74
71	225
72	999
84	16
85	55
114	6
115	1
143	3
