Mass Spectrum: Cyclopropa[3,4]pentaleno[1,2-d][1,3]dioxole, 2a,2b,2c,5a,5b,5c-hexahydro-, (2a.alpha.,2b.alpha.,2c.alpha.,5a.alpha.,5b.alpha.,5c.alpha.)-
Formula: C9H10O2
CAS: 69956-56-5
Molecular weight: 150
m/z	intensity
39	190
51	110
52	50
65	250
71	250
72	999
78	200
91	920
92	150
104	510
119	80
120	40
150	30
151	4
