Mass Spectrum: Sydnone, 3-(dimethylamino)-4-[(hydroxyimino)methyl]-
Formula: C5H8N4O3
CAS: 69978-11-6
Molecular weight: 172
m/z	intensity
42	330
43	330
44	999
45	270
69	100
70	60
114	500
124	70
142	100
172	400
