Mass Spectrum: 2-Oxazolidinone, 5-ethenyl-3-phenyl-
Formula: C11H11NO2
CAS: 69974-30-7
Molecular weight: 189
m/z	intensity
31	180
39	190
43	110
51	450
77	999
78	150
91	240
104	990
105	310
117	130
118	190
119	90
130	410
144	510
145	150
161	90
189	900
190	110
