Mass Spectrum: 2-Oxazolidinone, 5,5'-(1,4-phenylene)bis[3-phenyl-
Formula: C24H20N2O4
CAS: 69974-31-8
Molecular weight: 400
m/z	intensity
44	180
77	970
91	570
104	999
105	310
117	750
118	310
162	200
194	700
209	170
220	260
253	180
311	160
355	990
356	610
400	760
401	210
