Mass Spectrum: 1-Methyl-d3-2-(3-pyridyl)-pyrrolidine
Formula: C10H11D3N2
CAS: 69980-24-1
Molecular weight: 165
m/z	intensity
14	1
16	1
17	1
18	5
26	4
27	9
28	18
29	5
30	3
31	2
32	5
33	1
35	1
37	2
38	9
39	34
40	8
41	20
42	6
43	7
44	15
45	116
46	7
47	10
48	1
49	1
50	22
51	54
52	21
53	8
54	4
55	4
56	8
57	3
58	23
59	6
60	4
61	4
62	8
63	31
64	17
65	42
66	11
67	14
68	6
69	7
70	3
71	3
72	1
73	1
74	3
75	6
76	8
77	22
78	48
79	19
80	8
81	4
82	9
83	3
84	16
85	66
86	15
87	999
88	61
89	12
90	12
91	34
92	70
93	21
94	12
95	3
96	2
97	2
98	1
101	2
102	2
103	8
104	21
105	25
106	11
107	6
108	6
109	9
110	10
111	1
112	1
115	1
116	5
117	42
118	62
119	48
120	16
121	17
122	76
123	17
124	5
128	1
129	2
130	62
131	18
132	9
133	9
134	9
135	35
136	541
137	73
138	5
142	1
143	2
144	7
145	12
146	5
147	5
148	4
149	3
150	1
159	2
160	1
161	6
162	28
163	21
164	317
165	313
166	41
167	2
