Mass Spectrum: Diethanolnitrosamine, 2TMS derivative
Formula: C10H26N2O3Si2
CAS: 69981-29-9
Molecular weight: 278
m/z	intensity
73	999
75	480
101	210
103	660
116	620
117	290
130	690
144	80
147	100
175	10
218	40
232	20
233	10
235	10
248	20
263	40
