Mass Spectrum: 3-Buten-2-one, 4-(2,6,6-trimethyl-2-cyclohexen-1-yl)-, (2,4-dinitrophenyl)hydrazone
Formula: C19H24N4O4
CAS: 6998-49-8
Molecular weight: 372
m/z	intensity
38	38
39	242
40	71
41	807
42	385
43	163
44	45
45	126
48	43
50	54
51	115
52	85
53	236
54	54
55	263
56	75
57	45
59	152
62	38
63	105
64	110
65	184
66	64
67	200
68	56
69	147
70	42
71	15
73	17
74	112
75	71
76	63
77	684
78	168
79	357
80	117
81	231
82	68
83	42
84	24
88	12
89	32
90	66
91	789
92	205
93	999
94	184
95	189
96	61
97	22
98	15
99	8
101	12
102	31
103	10
104	94
105	278
106	131
107	736
108	184
109	357
110	54
111	24
112	14
114	10
115	115
116	64
117	179
118	173
119	458
120	137
121	157
122	352
123	142
124	26
126	10
127	33
128	70
129	66
130	68
131	121
132	152
133	179
134	807
135	184
136	91
137	64
138	17
139	17
140	22
141	54
142	61
143	57
144	78
145	85
146	98
147	80
148	57
149	38
150	73
151	21
152	63
153	57
154	35
155	42
156	38
157	85
158	80
159	108
160	614
161	108
162	21
163	33
164	29
165	78
166	38
167	64
168	45
169	38
170	59
171	38
172	50
173	73
174	117
175	98
176	59
177	31
178	40
179	29
180	57
181	78
182	84
183	124
184	33
185	17
186	21
187	29
188	40
189	47
190	128
191	42
192	35
193	36
194	54
195	54
196	96
197	35
198	29
199	35
200	12
201	12
202	22
203	71
204	43
205	24
206	40
207	75
208	142
209	71
210	40
211	31
212	21
213	21
214	17
215	50
216	117
217	30
218	66
219	66
220	42
221	40
222	68
223	47
224	33
225	29
226	24
227	29
228	75
229	136
230	36
231	22
232	19
233	29
234	40
235	131
236	47
237	35
238	19
239	26
240	43
241	66
242	19
243	43
244	21
245	82
246	17
247	14
249	115
250	31
251	40
252	24
253	84
254	136
255	96
256	59
257	33
264	38
265	22
266	49
267	57
268	96
269	70
270	38
271	31
275	35
280	29
281	278
282	131
283	71
284	26
285	26
289	157
290	36
291	26
292	15
293	15
294	21
295	28
296	17
297	33
298	21
299	78
300	22
301	421
302	78
303	24
309	22
310	68
311	33
315	52
316	719
317	131
318	21
323	35
324	15
325	24
326	12
337	63
338	29
339	42
340	29
342	47
355	73
356	22
357	982
358	210
359	31
370	7
371	12
372	561
373	131
374	22
375	10
