Mass Spectrum: Ornithine
Formula: C5H12N2O2
CAS: 70-26-8
Molecular weight: 132
m/z	intensity
26	17
27	78
28	420
29	107
30	453
31	23
33	3
39	69
40	21
41	132
42	158
43	576
44	85
45	12
46	4
50	3
51	7
52	12
53	12
54	33
55	24
56	659
57	157
58	339
59	17
65	3
66	3
67	6
68	64
69	999
70	225
71	17
73	3
74	3
75	5
81	3
82	3
83	7
84	6
85	58
86	44
87	6
97	25
98	3
113	4
114	34
115	8
