Mass Spectrum: 1-Pyrroline, 2-phenyl-
Formula: C10H11N
CAS: 700-91-4
Molecular weight: 145
m/z	intensity
25	46
26	24
27	598
29	606
30	155
38	11
39	43
40	21
41	69
42	125
43	433
45	999
46	480
47	51
50	14
51	28
55	29
56	14
57	23
60	16
63	14
65	14
66	10
67	14
69	16
70	10
71	13
73	10
76	16
77	51
79	11
81	11
83	13
89	16
90	14
91	19
94	23
95	10
97	10
103	19
104	30
105	14
115	23
116	12
117	189
118	19
143	16
144	45
145	91
146	12
