Mass Spectrum: Benzeneacetamide, .alpha.-amino-
Formula: C8H10N2O
CAS: 700-63-0
Molecular weight: 150
m/z	intensity
27	12
28	201
29	9
30	4
39	23
40	2
41	6
43	4
44	20
49	2
50	26
51	63
52	24
53	18
54	4
57	2
62	6
63	14
64	4
65	4
73	9
75	8
76	12
77	176
78	40
79	377
80	27
89	11
90	8
91	5
103	2
104	69
105	18
106	999
107	91
108	3
149	22
150	3
151	9
