Mass Spectrum: Didecyl phosphite
Formula: C20H43O3P
CAS: 7000-66-0
Molecular weight: 362
m/z	intensity
15	2
27	25
29	53
30	2
31	1
39	12
40	3
41	110
42	28
43	142
44	5
45	3
53	6
54	14
55	108
56	35
57	66
58	4
65	7
67	15
68	11
69	46
70	21
71	23
81	6
83	999
84	6
85	22
96	6
97	16
98	3
109	4
111	5
112	2
123	5
137	3
140	4
207	2
222	2
223	31
224	4
