Mass Spectrum: Cyclopropa[3,4]pentaleno[1,2-d][1,3]dioxole, 2a,2b,2c,5a,5b,5c-hexahydro-, (2a.alpha.,2b.alpha.,2c.beta.,5a.beta.,5b.alpha.,5c.alpha.)-
Formula: C9H10O2
CAS: 70004-62-5
Molecular weight: 150
m/z	intensity
39	250
51	130
52	70
65	300
71	160
72	520
78	380
91	999
92	150
104	820
119	70
120	50
150	5
