Mass Spectrum: Cyclobuta[1,2-d:3,4-d']bis[1,3]dioxole, tetrahydro-, (3a.alpha.,3b.beta.,6a.beta.,6b.alpha.)-
Formula: C6H8O4
CAS: 70004-63-6
Molecular weight: 144
m/z	intensity
29	129
30	22
31	58
39	12
55	78
71	232
72	999
84	23
85	65
114	8
115	1
143	3
