Mass Spectrum: Pyrrolidine, 4-(pyrrolidinocarbonylbenzyl)triphenylacetyl-
Formula: C36H36N2O2
CAS: 70008-31-0
Molecular weight: 528
m/z	intensity
55	559
56	140
70	37
91	12
98	999
99	52
105	4
152	6
160	3
165	54
166	8
167	18
172	3
178	4
179	4
183	2
189	3
191	1
194	1
202	4
203	2
215	5
226	3
228	2
236	2
239	11
240	7
241	28
242	6
248	15
249	3
252	17
253	24
254	9
264	6
431	280
432	43
433	4
435	2
458	1
459	0
484	0
499	0
511	0
528	48
529	16
530	3
