Mass Spectrum: Methyl 2-methoxypropenoate
Formula: C5H8O3
CAS: 7001-18-5
Molecular weight: 116
m/z	intensity
31	53
33	6
37	5
38	10
39	48
40	15
41	48
42	113
43	999
44	36
45	589
46	13
53	30
54	19
55	105
56	48
57	542
58	72
59	139
60	6
61	5
68	2
69	16
70	0
71	3
72	2
73	18
74	2
83	0
84	19
85	256
86	45
87	8
88	6
89	2
98	2
99	3
100	7
101	68
102	8
115	5
116	9
117	4
