Mass Spectrum: 2,4-Dioxa-6,8-dithiaadamantane, 1,3,5,7-tetramethyl-
Formula: C10H16O2S2
CAS: 7001-16-3
Molecular weight: 232
m/z	intensity
15	89
18	11
27	21
28	4
29	17
38	2
39	102
40	13
41	106
42	21
43	404
44	64
45	96
46	4
47	28
53	21
55	11
57	4
58	43
59	298
60	9
61	17
65	17
67	17
69	17
71	21
72	4
73	43
74	511
75	68
76	30
83	21
85	21
87	21
88	26
97	9
98	9
99	38
101	43
107	17
109	4
113	17
115	64
116	999
117	191
118	64
119	21
123	30
125	15
126	6
131	6
132	17
133	11
139	13
157	60
167	340
168	36
199	106
200	15
232	340
233	43
234	38
