Mass Spectrum: 2,2-Dimethyl-N-[2,2,2-trichloro-1-(2,4,6-trichloro-phenylamino)-ethyl]-propionamide
Formula: C13H14Cl6N2O
CAS: 70023-83-5
Molecular weight: 424
m/z	intensity
39	3
40	6
41	199
42	55
43	18
44	8
45	1
55	6
56	12
57	999
58	342
59	3
69	9
83	13
84	0
85	77
86	27
97	0
111	3
195	111
196	29
197	95
198	22
199	19
200	0
221	0
223	12
225	4
226	0
307	63
308	20
309	76
310	18
311	10
312	0
