Mass Spectrum: Methoxyloxapine
Formula: C19H20ClN3O2
CAS: 70020-54-1
Molecular weight: 357
m/z	intensity
42	344
43	212
44	57
50	11
51	58
52	16
54	35
55	33
56	198
57	46
58	36
61	2
62	17
63	119
64	24
65	9
67	7
68	17
69	11
70	999
71	164
72	13
75	52
77	25
79	87
80	6
81	6
82	81
83	393
84	40
85	19
86	9
87	8
88	11
95	10
97	19
98	32
100	14
101	11
102	9
103	7
105	3
107	26
108	5
111	10
116	2
123	34
124	14
125	21
126	32
127	19
128	11
134	7
135	15
136	12
137	15
138	32
139	23
140	11
141	7
146	3
149	9
151	40
152	75
153	38
154	15
156	4
161	32
162	13
164	47
166	15
167	12
170	2
176	7
177	8
178	8
180	71
181	13
186	11
187	43
188	10
191	21
193	24
194	25
195	9
198	6
200	6
201	15
203	12
205	4
206	5
208	128
209	17
215	21
216	24
217	6
218	15
223	137
227	23
228	15
229	17
230	18
241	8
242	14
243	37
244	13
245	19
246	5
249	6
251	6
252	51
255	6
256	9
257	15
258	118
259	22
260	39
261	8
265	7
272	13
273	5
274	223
275	55
276	83
285	9
286	15
287	297
288	40
289	114
299	46
301	36
302	13
303	1
313	15
356	3
357	38
358	13
