Mass Spectrum: 1,3-Dihydro-1-hydroxy-3,3-dimethyl-1(m-tolyl)-3,4-benzofuran
Formula: C17H18O2
CAS: 7002-47-3
Molecular weight: 254
m/z	intensity
34	111
36	17
39	376
40	234
41	281
43	760
44	147
45	45
50	206
51	270
52	62
53	58
54	29
55	62
56	35
57	61
58	18
60	17
61	30
62	88
63	243
65	546
66	37
67	19
68	31
69	33
70	32
71	18
73	20
74	70
75	101
76	140
77	233
78	87
79	19
81	19
82	50
83	38
84	20
86	22
87	32
88	78
89	209
91	999
92	133
93	16
95	31
96	22
97	18
100	18
101	52
102	78
103	108
104	98
105	88
108	15
109	38
110	58
111	54
112	78
114	35
115	368
116	114
117	171
118	75
119	195
120	15
126	15
127	17
128	19
129	26
131	37
139	18
143	35
145	339
147	521
148	29
150	16
151	27
152	69
162	16
163	316
164	48
165	81
166	18
176	20
177	28
178	155
179	34
181	31
189	19
190	19
191	28
192	30
193	35
202	21
203	19
207	20
218	39
219	43
220	70
221	397
222	95
223	41
235	153
236	216
237	184
239	434
240	38
254	22
255	9
