Mass Spectrum: Thiophene-2-carboxaldehyde, phenylsulfonylhydrazone
Formula: C11H10N2O2S2
CAS: 70027-00-8
Molecular weight: 266
m/z	intensity
33	7
34	2
39	230
41	9
42	4
45	300
47	26
51	417
52	74
53	109
54	80
55	3
57	24
58	22
59	5
60	3
63	83
65	38
66	10
67	5
70	357
71	97
72	19
73	10
74	17
75	11
77	366
78	62
79	5
81	164
82	14
83	9
84	9
85	6
86	0
87	0
88	0
89	1
92	85
93	15
96	999
98	766
99	33
100	27
102	2
103	0
104	0
105	0
106	0
109	13
110	7
111	6
113	6
115	6
116	0
118	0
121	2
125	936
126	54
127	26
128	6
129	2
130	0
133	0
134	0
135	4
136	0
138	0
139	2
141	20
142	6
143	1
144	0
145	0
147	0
148	0
149	0
150	0
151	1
153	0
154	0
157	0
158	0
160	1
168	0
169	0
171	3
172	3
173	3
174	0
191	0
201	1
202	0
222	0
239	0
262	0
263	0
264	1
266	346
268	76
269	3
270	1
