Mass Spectrum: Methyl 7-ethyl-10-(heptafluorobutyryloxy)-11-methoxy-3,11-dimethyl-2,6-tridecadienoate
Formula: C23H33F7O5
CAS: 70028-64-7
Molecular weight: 522
m/z	intensity
85	600
87	999
99	350
107	320
114	230
121	160
135	170
149	130
163	250
178	80
217	60
279	140
308	10
463	2
490	2
493	3
522	2
