Mass Spectrum: 3-Nonynoic acid, methyl ester
Formula: C10H16O2
CAS: 7003-47-6
Molecular weight: 168
m/z	intensity
15	447
16	152
17	57
18	54
26	38
27	428
28	227
29	590
30	19
31	17
37	3
38	38
39	447
40	104
41	942
42	142
43	533
44	38
45	76
46	3
49	1
50	95
51	266
52	380
53	533
54	186
55	666
56	114
57	142
58	15
59	799
60	15
61	3
62	15
63	57
64	15
65	186
66	95
67	999
68	190
69	142
70	34
71	142
72	22
73	3
74	114
75	41
76	3
77	186
78	53
79	799
80	161
81	510
82	171
83	152
84	499
85	76
86	3
87	28
91	123
92	22
93	594
94	733
95	476
96	47
97	295
98	47
99	28
100	3
101	3
105	15
106	3
107	133
108	742
109	323
110	28
111	247
112	377
113	66
114	15
118	3
121	66
122	5
123	3
124	1
125	57
126	28
127	3
128	3
135	15
136	22
137	38
138	5
139	28
140	5
141	19
152	15
153	9
154	9
168	9
