Mass Spectrum: 8-Nonynoic acid, methyl ester
Formula: C10H16O2
CAS: 7003-48-7
Molecular weight: 168
m/z	intensity
26	20
27	270
28	110
29	200
31	40
38	20
39	360
40	70
41	630
42	130
43	590
44	40
45	100
50	20
51	60
52	40
53	170
54	260
55	570
56	40
57	60
59	390
60	10
63	10
65	60
66	40
67	460
68	150
69	330
70	20
71	30
72	20
73	30
74	999
75	60
77	70
78	30
79	380
80	100
81	190
82	60
83	20
84	60
85	100
87	180
88	20
91	60
92	30
93	200
94	360
95	330
96	50
97	70
98	10
100	10
101	10
107	30
108	110
109	70
111	30
113	10
114	20
119	10
121	20
125	10
127	10
128	20
129	20
135	10
137	20
168	5
