Mass Spectrum: 7-Oxabicyclo[4.1.0]heptane, 2,2,6-trimethyl-1-(3-methyl-1,3-butadienyl)-5-methylene-
Formula: C15H22O
CAS: 70038-20-9
Molecular weight: 218
m/z	intensity
26	9
27	198
28	11
29	180
38	13
39	327
40	70
41	673
42	44
43	999
44	34
45	20
50	18
51	96
52	56
53	208
54	27
55	314
56	30
57	64
58	8
59	12
62	8
63	37
64	17
65	163
66	47
67	249
68	25
69	170
70	33
71	35
75	11
76	9
77	247
78	71
79	254
80	93
81	195
82	23
83	58
84	12
85	38
86	47
89	15
91	483
92	102
93	423
94	224
95	200
96	30
97	86
98	11
99	9
102	12
103	55
104	30
105	576
106	147
107	661
108	92
109	51
110	12
111	19
112	25
115	52
116	26
117	67
118	28
119	724
120	203
121	460
122	82
123	421
124	55
125	24
127	12
128	34
129	40
130	24
131	76
132	96
133	252
134	218
135	227
136	33
137	20
139	32
141	17
142	16
143	33
144	27
145	177
146	74
147	178
148	37
149	73
150	19
155	9
156	9
157	34
158	12
159	54
160	32
161	70
162	101
163	102
164	20
170	14
171	10
172	8
173	16
175	193
176	31
177	103
178	17
185	57
186	12
187	30
188	9
189	16
190	19
200	9
202	25
203	226
204	37
205	10
217	11
218	309
219	52
220	8
