Mass Spectrum: Spiro[bicyclo[2.2.2]octane-2,2'-[1,3]dithian]-3-ol
Formula: C11H18OS2
CAS: 70067-94-6
Molecular weight: 230
m/z	intensity
25	94
27	59
29	80
30	3
31	24
32	12
33	1
34	1
35	3
36	0
37	2
38	5
39	158
40	26
41	329
42	38
43	44
44	187
45	7
46	50
47	98
48	5
49	6
50	6
51	29
52	11
53	98
54	24
55	104
56	9
57	38
58	28
59	46
60	15
61	41
62	2
63	12
64	18
65	70
66	39
67	140
68	43
69	32
70	15
71	193
72	35
73	121
74	94
75	69
76	13
77	134
78	45
79	162
80	52
81	109
82	20
83	29
84	25
85	86
86	28
87	56
88	6
89	11
90	9
91	110
92	26
93	261
94	70
95	196
96	421
97	83
98	17
99	43
100	22
101	12
102	35
103	18
104	14
105	56
106	486
107	92
108	53
109	45
110	21
111	44
112	16
113	33
114	10
115	12
116	8
117	10
118	16
119	999
120	113
121	108
122	29
123	154
124	305
125	52
126	30
127	139
128	140
129	25
130	16
131	8
132	18
133	6
134	4
135	8
136	3
137	26
138	18
139	28
140	18
141	17
142	6
143	6
144	2
145	194
146	19
147	24
148	38
149	46
150	12
151	9
152	3
153	38
154	10
155	74
156	226
157	39
158	28
159	23
160	15
161	9
162	3
163	3
164	1
165	6
166	2
167	6
168	7
169	19
170	4
171	14
172	7
173	9
174	5
175	3
176	1
177	1
179	12
180	1
181	0
182	1
183	18
184	6
185	5
186	3
187	11
188	3
189	2
190	0
195	1
196	2
197	8
198	1
199	8
200	14
201	7
202	36
203	4
204	3
205	2
209	0
210	1
211	2
212	5
213	7
214	2
215	1
216	0
217	0
218	0
219	1
223	2
224	2
228	12
229	17
230	976
231	141
232	105
233	15
