Mass Spectrum: Ethyl (8R,S)-cis-bicyclo[4.3.0]-3-nonene-8-carboxylate
Formula: C12H18O2
CAS: 70071-93-1
Molecular weight: 194
m/z	intensity
27	420
29	490
31	20
39	400
40	80
41	500
42	30
43	50
45	40
50	30
51	120
52	70
53	160
54	150
55	10
57	50
58	10
59	10
63	40
65	170
66	290
67	600
68	40
69	50
73	370
74	70
75	20
77	350
78	230
79	999
80	150
81	100
83	20
86	10
91	600
92	490
93	370
94	540
95	60
97	40
101	340
102	150
103	30
104	30
105	150
106	60
107	30
111	40
112	20
115	40
116	10
117	60
118	30
119	350
120	710
121	570
122	50
125	20
129	10
130	80
131	30
133	30
137	20
139	10
140	10
147	40
148	510
149	240
150	30
152	20
165	20
194	120
195	20
