Mass Spectrum: 2-Cyano-2-(3,4-dichloro-5(2H)-oxo-2-furyl)acetamide
Formula: C7H4Cl2N2O3
CAS: 70097-69-7
Molecular weight: 234
m/z	intensity
34	69
36	169
37	101
38	96
39	69
40	165
41	92
44	999
47	46
48	93
50	72
51	28
52	50
53	38
55	54
57	24
59	37
60	96
61	60
63	22
64	17
65	10
66	12
67	43
68	96
69	23
70	28
72	39
73	24
74	114
76	107
79	4
80	5
81	9
83	14
84	132
86	181
88	14
89	51
90	4
91	7
92	7
94	65
95	163
96	140
98	18
99	26
100	20
102	4
103	3
104	5
105	2
106	30
109	32
110	34
111	73
113	9
114	12
115	4
116	1
117	3
118	2
119	6
120	6
121	40
123	23
124	20
125	16
126	9
128	87
129	12
130	23
131	3
132	1
133	2
134	6
135	8
136	6
137	5
138	8
139	1
140	3
141	1
143	4
144	1
145	5
146	5
147	5
148	3
149	50
151	132
152	28
153	89
154	22
155	53
156	52
157	13
158	18
161	5
163	83
164	35
165	41
166	20
167	8
168	4
171	68
172	6
173	20
174	2
175	1
182	1
189	65
190	138
191	74
192	88
193	33
194	15
195	5
199	3
201	1
206	4
207	1
208	2
218	5
219	5
234	48
235	6
236	28
237	3
238	4
