Mass Spectrum: Spiro[cyclohexanol-3,6'-piperidin-2'-one], 2-butyl-
Formula: C14H25NO2
CAS: 70095-91-9
Molecular weight: 239
m/z	intensity
41	201
42	103
43	99
44	84
45	9
46	2
47	1
49	1
50	1
51	7
52	7
53	42
54	60
55	429
56	48
57	138
58	16
59	33
60	5
61	2
62	0
63	4
64	1
65	24
66	14
67	130
68	45
69	54
70	81
71	26
72	17
73	8
74	0
75	1
77	39
78	12
79	75
80	33
81	68
82	220
83	152
84	42
85	27
86	14
87	11
88	1
89	1
91	35
92	7
93	32
94	46
95	42
96	262
97	54
98	343
99	55
100	5
103	1
104	2
105	13
106	11
107	17
108	30
109	32
110	34
111	354
112	999
113	150
114	18
115	3
116	1
117	3
118	2
119	9
120	7
121	9
122	33
123	20
124	340
125	75
126	39
127	37
128	3
129	3
130	1
131	3
132	2
133	6
134	6
135	7
136	37
137	66
138	66
139	21
140	73
141	26
142	5
143	2
145	1
146	1
147	6
148	6
149	5
150	153
151	81
152	23
153	6
154	9
155	10
156	1
159	0
160	1
161	4
162	6
163	4
164	47
165	71
166	41
167	10
168	123
169	16
170	1
175	1
176	1
177	1
178	91
179	18
180	5
181	0
182	10
183	88
184	9
185	1
192	35
193	16
194	3
196	239
197	35
198	3
204	2
205	1
206	6
207	1
208	12
209	1
210	5
211	5
213	0
219	0
220	6
221	28
222	11
223	1
224	1
238	2
239	259
240	63
241	7
