Mass Spectrum: Allyl 1-pyrrolidinecarbodithioate
Formula: C8H13NS2
CAS: 701-13-3
Molecular weight: 187
m/z	intensity
15	9
26	5
27	42
28	108
29	32
30	27
32	7
33	1
34	2
37	3
38	8
39	93
40	14
41	181
42	37
43	102
44	22
45	42
46	7
47	9
50	1
51	3
52	2
53	15
54	15
55	268
56	28
57	7
58	12
59	15
60	25
61	2
62	1
64	5
66	1
67	4
68	40
69	11
70	530
71	33
72	438
73	39
74	29
75	2
76	20
77	63
78	8
79	5
80	2
81	3
82	43
83	3
84	3
85	22
86	22
87	16
88	68
89	5
90	4
91	1
93	1
95	1
96	1
97	1
98	2
99	1
100	12
101	1
102	8
103	1
104	4
105	1
108	1
110	2
112	7
113	1
114	999
115	76
116	47
117	4
118	1
120	11
121	2
122	1
128	2
132	1
140	3
144	1
146	171
147	15
148	15
149	1
152	1
154	35
155	4
156	2
158	27
159	3
160	3
161	17
162	2
163	1
172	53
173	5
174	5
186	2
187	406
188	45
189	37
190	4
191	1
