Mass Spectrum: 5-(Hydroxyiminomethyl)-6-[(2-methylamino)ethyl]-1,3-benzodioxole
Formula: C11H14N2O3
CAS: 7010-80-2
Molecular weight: 222
m/z	intensity
44	999
51	60
63	90
76	100
77	60
89	80
104	120
105	100
106	80
116	80
130	70
131	60
161	80
162	190
163	70
178	100
179	50
205	30
222	0
223	1
