Mass Spectrum: 1-Trimethylsilyloxy-n-octene
Formula: C11H24OSi
CAS: 70109-89-6
Molecular weight: 200
m/z	intensity
59	100
73	999
74	80
75	510
76	20
129	600
130	60
131	20
157	60
185	80
200	60
201	10
202	3
