Mass Spectrum: Methyl 4-oxodecanoate
Formula: C11H20O3
CAS: 7011-82-7
Molecular weight: 200
m/z	intensity
41	340
43	999
55	460
57	360
59	180
71	100
85	220
87	240
98	590
113	250
115	450
130	340
169	110
