Mass Spectrum: 5-Hexyl-2-furaldehyde
Formula: C11H16O2
CAS: 7011-80-5
Molecular weight: 180
m/z	intensity
50	41
51	179
52	242
53	778
54	48
55	103
56	9
62	4
63	28
64	11
65	127
66	116
67	237
77	88
78	26
79	108
80	86
81	935
82	76
83	13
86	9
91	43
92	15
93	47
94	50
95	319
96	259
97	308
98	19
105	43
106	24
107	60
108	76
109	999
110	935
111	140
112	13
119	37
120	30
121	69
122	76
123	410
124	56
125	9
133	153
134	69
135	17
136	6
137	69
138	17
147	54
148	4
149	48
150	4
151	216
152	28
161	4
162	19
163	7
165	13
179	9
180	649
181	90
182	4
