Mass Spectrum: Chromium, tricarbonyl(.eta.6-1,2-dichlorobenzene)-
Formula: C9H4Cl2CrO3
CAS: 70140-19-1
Molecular weight: 282
m/z	intensity
26	1
27	2
28	7
29	0
35	0
36	1
37	0
38	2
39	4
40	36
41	1
43	2
44	0
45	6
46	0
49	1
50	148
51	12
52	999
53	101
54	24
56	0
57	0
59	0
61	1
62	3
63	1
64	2
65	0
68	0
69	0
71	0
72	0
73	2
74	21
75	42
76	105
77	11
78	3
79	0
80	38
81	4
82	1
83	0
84	1
85	5
86	1
87	82
88	11
89	28
90	3
91	0
92	0
97	0
99	1
100	0
101	6
102	1
103	0
106	0
108	6
109	1
110	1
111	6
112	0
113	7
114	3
115	4
116	0
117	2
120	0
122	5
123	1
124	3
125	1
126	0
127	27
128	7
129	1
130	0
136	0
137	0
145	0
146	7
147	0
148	5
149	0
150	0
152	0
161	0
162	3
163	10
164	4
165	5
166	1
167	0
191	1
192	0
193	0
196	9
197	1
198	191
199	34
200	136
201	23
202	26
203	3
204	0
224	1
225	0
226	21
227	4
228	16
229	3
230	2
231	0
247	0
248	1
249	0
250	0
252	0
254	4
255	1
256	2
257	0
258	0
274	0
276	0
280	4
282	100
283	21
284	68
285	13
286	14
287	2
288	0
