Mass Spectrum: Methoxyacetic acid, 2-butyl ester
Formula: C7H14O3
CAS: 70159-90-9
Molecular weight: 146
m/z	intensity
22	1
25	1
26	16
27	62
28	9
29	210
30	10
31	19
33	2
35	5
36	41
37	2
38	13
39	49
40	10
41	267
42	37
43	41
44	37
45	999
46	25
47	27
49	3
50	20
51	28
52	56
53	12
54	2
55	34
56	103
57	521
58	22
59	5
60	34
61	7
63	3
68	1
69	7
70	19
71	3
72	8
73	9
74	1
75	2
76	2
77	2
78	12
79	102
80	5
84	6
87	2
89	103
90	12
91	18
94	1
96	2
101	1
103	18
111	2
116	16
117	5
