Mass Spectrum: 22,23-Dihydroepineoergosterol
Formula: C27H42O
CAS: 70157-93-6
Molecular weight: 382
m/z	intensity
41	319
42	46
43	999
44	26
51	2
53	31
55	257
57	131
58	4
65	8
67	36
69	137
71	114
72	2
77	18
79	28
81	35
83	51
85	22
89	3
91	35
93	18
95	26
97	47
103	6
104	1
105	20
107	8
108	2
109	8
111	11
115	44
116	11
117	15
118	1
119	13
121	6
123	4
125	1
127	10
128	71
129	53
130	8
131	31
133	10
139	2
141	135
142	65
143	84
144	17
145	13
147	5
151	4
152	27
153	65
154	50
155	91
156	33
157	42
158	10
159	21
160	5
161	10
165	81
166	41
167	94
168	63
169	111
170	42
171	28
172	3
173	6
175	2
176	1
178	26
179	51
180	51
181	99
182	48
183	607
184	109
185	26
187	39
188	6
189	1
191	10
192	8
193	28
194	29
195	282
196	95
197	88
198	21
199	18
200	49
201	344
202	49
203	7
205	8
206	5
207	15
208	7
209	48
210	181
211	84
213	641
214	139
215	40
216	5
219	5
220	1
221	20
222	24
223	29
224	11
225	6
227	37
228	140
229	24
230	4
235	12
237	675
238	130
239	25
240	6
241	6
249	5
251	4
253	9
254	1
255	29
256	5
265	28
266	6
279	1
283	1
321	7
338	1
339	9
340	1
349	60
350	15
363	7
364	308
365	110
366	24
367	10
380	4
381	7
382	561
383	163
384	26
