Mass Spectrum: 4-Bromobenzoic acid, octadecyl ester
Formula: C25H41BrO2
CAS: 70153-15-0
Molecular weight: 452
m/z	intensity
26	21
27	81
28	27
29	187
30	10
31	8
33	7
35	17
36	135
37	38
38	115
39	209
40	58
41	834
42	262
43	990
44	209
45	39
47	6
48	3
49	20
50	189
51	89
52	48
53	99
54	231
55	999
56	476
57	766
58	37
60	35
61	17
62	7
63	22
64	8
65	64
66	18
67	279
68	309
69	729
70	353
71	321
72	14
73	30
74	86
75	206
76	257
77	176
78	113
79	55
80	42
81	132
82	296
83	659
84	257
85	183
86	15
87	16
88	10
90	3
91	24
92	23
93	21
94	16
95	68
96	154
97	505
98	150
99	38
101	5
102	3
103	26
104	127
105	134
106	31
107	6
108	9
109	47
110	34
111	219
112	119
113	16
117	11
118	6
119	11
120	13
121	24
122	40
123	129
124	53
125	115
126	60
127	26
128	15
129	3
130	4
131	19
132	2
133	15
134	8
135	18
137	22
138	25
139	56
140	55
141	7
142	5
145	9
146	4
147	3
148	9
149	9
150	2
151	8
152	20
153	37
154	24
155	231
156	24
157	256
158	29
159	23
160	2
163	7
164	3
166	10
167	22
168	32
169	4
171	3
172	2
173	18
174	6
176	3
177	9
179	5
180	5
181	21
182	33
183	670
184	67
185	628
186	91
187	3
190	4
191	7
192	4
193	3
194	3
195	5
196	15
197	16
198	12
199	15
200	695
201	936
202	714
203	970
204	63
205	13
207	19
208	15
210	13
211	5
213	6
214	3
219	7
222	3
223	7
224	80
225	17
228	2
232	3
235	2
247	6
250	15
251	7
252	200
253	44
254	6
255	3
273	2
373	27
374	6
452	3
454	3
