Mass Spectrum: Pyridine, 2-chloro-6-(2-furanylmethoxy)-4-(trichloromethyl)-
Formula: C11H7Cl4NO2
CAS: 70166-48-2
Molecular weight: 325
m/z	intensity
41	2
42	0
47	1
49	3
50	13
51	21
52	18
53	140
54	2
60	2
61	1
62	2
63	3
64	1
68	0
72	2
73	0
74	1
75	4
76	5
77	0
79	0
81	999
82	49
83	1
84	2
85	1
95	2
96	0
97	2
99	0
100	0
107	2
109	2
110	6
111	0
112	1
115	0
119	4
120	0
121	2
122	0
127	0
131	0
145	3
146	6
147	0
148	1
154	0
155	0
156	0
157	0
158	2
159	0
160	1
181	2
182	1
183	2
184	1
185	0
186	0
194	0
195	0
196	0
210	0
212	0
231	0
290	4
291	0
292	3
294	0
325	5
326	0
327	7
328	0
329	3
331	0
