Mass Spectrum: 3-Buten-2-ol, 3-methyl-4-(2,6,6-trimethyl-2-cyclohexen-1-yl)-
Formula: C14H24O
CAS: 70172-00-8
Molecular weight: 208
m/z	intensity
26	4
27	113
28	40
29	127
30	3
31	13
36	6
37	2
38	4
39	147
40	29
41	365
42	25
43	596
44	24
45	109
46	2
50	8
51	54
52	26
53	136
54	19
55	253
56	36
57	41
58	7
59	34
60	4
62	3
63	15
64	8
65	92
66	22
67	226
68	180
69	143
70	15
71	28
72	161
73	13
74	3
75	6
76	7
77	177
78	52
79	188
80	140
81	488
82	78
83	63
84	16
85	54
86	7
87	2
89	9
90	4
91	282
92	70
93	251
94	127
95	149
96	31
97	74
98	24
99	8
101	3
102	7
103	28
104	14
105	163
106	79
107	327
108	200
109	999
110	145
111	27
112	7
113	3
114	2
115	28
116	14
117	31
118	13
119	552
120	138
121	167
122	42
123	146
124	29
125	16
126	4
127	5
128	18
129	14
130	7
131	20
132	11
133	98
134	338
135	106
136	26
137	205
138	26
139	13
140	3
141	5
142	4
143	5
144	4
145	12
146	6
147	36
148	12
149	22
150	19
151	8
152	262
153	37
154	5
155	2
156	2
157	2
158	3
159	7
160	6
161	24
162	8
163	21
164	6
165	12
173	7
174	3
175	201
176	37
177	7
178	2
179	2
188	3
189	3
190	342
191	75
192	8
193	11
194	2
207	6
208	15
209	2
