Mass Spectrum: 5-Bromo-2-methoxyphenylacetic acid
Formula: C9H9BrO3
CAS: 7017-48-3
Molecular weight: 244
m/z	intensity
14	31
15	224
18	12
26	30
27	82
28	68
29	75
30	11
31	27
32	10
37	57
38	168
39	226
40	26
41	26
42	15
43	38
45	390
49	42
50	427
51	830
52	110
53	94
54	14
55	20
59	18
61	70
62	180
63	341
64	61
65	128
66	46
73	32
74	151
75	210
76	217
77	999
78	449
79	111
80	21
81	26
82	13
83	10
85	31
86	61
87	49
89	526
90	832
91	389
92	246
93	71
94	34
100	11
101	13
103	13
105	108
106	91
107	46
108	13
109	14
117	25
118	18
119	70
120	112
121	210
122	28
130	12
133	12
134	27
135	12
137	12
143	13
145	14
155	36
156	47
157	56
158	42
159	34
169	539
171	580
172	54
173	45
183	20
185	364
186	58
187	356
188	29
199	517
200	552
201	542
202	499
203	56
211	25
213	27
214	11
226	24
228	21
244	573
245	74
246	592
247	64
