Mass Spectrum: 3-Imidazoline-4-carboxaldehyde 3-oxide, 1,2,2,5,5-pentamethyl-, oxime
Formula: C9H17N3O2
CAS: 70183-45-8
Molecular weight: 199
m/z	intensity
33	0
37	5
38	17
39	127
40	31
41	137
42	146
43	67
44	57
45	2
50	8
51	19
52	21
53	47
54	54
56	999
57	41
58	9
59	3
60	0
61	0
62	0
63	2
64	4
65	11
66	27
67	20
68	19
69	9
70	46
71	32
72	274
73	13
74	1
75	0
76	0
77	2
78	2
79	4
80	21
81	19
82	17
83	10
84	7
85	2
86	0
87	0
92	2
93	4
94	8
95	8
96	9
97	6
98	17
99	2
100	0
105	0
106	1
107	3
108	12
109	10
110	13
111	4
112	1
113	1
114	0
119	1
120	2
121	6
122	9
123	19
124	17
125	4
127	6
128	1
129	0
132	0
133	1
134	6
135	8
136	5
137	13
138	2
139	3
140	0
141	0
148	1
149	1
150	9
151	7
152	10
153	1
154	1
155	5
156	0
166	2
167	4
168	3
169	0
184	95
185	7
186	0
196	0
197	2
199	35
200	4
201	0
