Mass Spectrum: Propanoic acid, 2,2-dimethyl-, rubidium salt
Formula: C5H9O2Rb
CAS: 70205-79-7
Molecular weight: 186
m/z	intensity
27	39
28	14
29	72
38	12
39	108
40	21
41	203
42	38
43	12
44	63
45	24
55	20
56	45
57	258
58	13
59	31
85	999
87	407
101	2
129	3
168	2
170	5
172	4
186	2
271	69
272	3
273	53
274	3
275	11
276	1
457	2
459	2
461	1
