Mass Spectrum: Tricyclo[4.2.1.1(2,5)]dec-3-en-9-ol, stereoisomer
Formula: C10H14O
CAS: 70220-93-8
Molecular weight: 150
m/z	intensity
26	9
27	138
28	8
29	70
31	38
38	18
39	222
40	47
41	188
42	24
43	46
44	23
50	24
51	78
52	36
53	86
54	34
55	106
56	29
57	166
58	10
60	5
62	8
63	34
64	16
65	115
66	999
67	615
68	44
69	30
70	69
71	21
75	9
77	265
78	143
79	337
80	151
81	67
82	47
83	216
84	102
85	12
89	10
90	7
91	388
92	89
93	211
94	68
95	20
96	61
97	8
103	23
104	218
105	51
106	50
107	27
108	14
109	17
115	27
116	16
117	249
118	28
119	56
120	8
121	25
122	13
128	5
129	6
130	4
131	80
132	324
133	36
135	8
149	15
150	35
151	4
