Mass Spectrum: 4,2,7-Ethanylylidenecyclopenta[b]pyran-9-one, 2,3,4,4a,7,7a-hexahydro-7a-methyl-
Formula: C11H12O2
CAS: 70220-97-2
Molecular weight: 176
m/z	intensity
26	12
27	119
28	6
29	14
31	4
37	4
38	17
39	158
40	22
41	59
42	8
43	518
44	13
45	6
50	38
51	116
52	45
53	67
54	12
55	156
56	9
57	7
61	3
62	11
63	38
64	12
65	73
66	41
67	16
68	9
69	8
70	10
71	4
73	5
74	8
75	8
76	9
77	224
78	110
79	262
80	26
81	23
82	109
83	14
84	19
85	4
89	13
90	7
91	227
92	227
93	35
94	33
95	393
96	28
97	5
98	18
99	3
102	12
103	114
104	52
105	999
106	99
107	24
108	15
115	47
116	44
117	34
118	24
119	72
120	13
121	17
122	9
127	4
128	7
129	21
130	13
131	21
132	18
133	345
134	89
135	10
147	29
148	29
149	20
158	3
159	7
161	11
175	4
176	611
177	76
178	8
