Mass Spectrum: Zinc(II) bis(N-methyl-N-isopropyldithiocarbamate)
Formula: C10H20N2S4Zn
CAS: 70225-32-0
Molecular weight: 360
m/z	intensity
41	999
42	809
43	912
44	132
45	279
46	70
47	73
48	18
49	5
50	2
51	4
52	8
53	5
54	23
55	23
56	262
57	52
58	167
59	73
60	51
61	40
62	6
63	2
64	47
65	5
66	11
67	2
68	10
69	6
70	59
71	40
72	361
73	706
74	652
75	94
76	143
77	57
78	16
79	10
82	8
83	3
84	34
85	4
86	30
87	2
88	5
89	2
91	12
92	2
96	9
97	32
98	5
99	22
100	129
101	50
102	13
103	3
105	20
106	122
107	12
108	13
109	3
110	4
113	4
114	235
115	43
116	235
117	53
118	15
123	7
125	5
127	3
128	6
129	5
130	4
131	6
132	7
133	3
135	4
136	4
137	18
138	26
139	13
140	16
141	10
142	8
143	3
146	4
147	22
148	110
149	81
150	16
151	8
154	3
156	3
158	2
163	14
165	3
168	21
169	5
170	46
171	14
172	33
173	15
174	21
175	7
176	4
177	2
189	5
191	7
201	4
202	26
203	5
204	20
205	6
206	13
207	4
208	2
211	6
212	86
213	15
214	59
215	18
216	40
217	6
218	5
244	66
245	11
246	48
247	13
248	32
249	5
250	5
253	7
255	5
257	3
269	5
270	1
271	7
273	5
283	20
284	2
285	19
286	13
287	14
288	9
289	6
290	5
317	16
318	1
319	11
320	2
321	7
322	2
327	3
329	2
359	12
360	166
361	37
362	124
363	39
364	85
365	17
366	15
367	2
