Mass Spectrum: 1,6-Hexanedione, 1,3,4,6-tetraphenyl-
Formula: C30H26O2
CAS: 7028-45-7
Molecular weight: 418
m/z	intensity
27	5
28	14
29	1
38	2
39	1
42	3
44	0
50	6
51	36
52	1
55	9
58	2
65	7
67	4
69	3
71	6
73	10
74	0
75	3
76	2
77	270
78	26
79	2
81	3
82	2
89	3
91	27
92	2
93	1
94	1
95	1
96	2
103	17
104	57
105	999
106	67
107	6
111	1
115	10
116	1
117	6
118	0
120	0
122	1
123	0
128	1
131	10
132	0
134	1
139	3
141	1
149	3
152	4
153	0
155	0
156	1
158	1
164	2
165	11
166	3
167	0
176	0
177	1
178	6
179	3
180	5
189	6
190	4
191	2
192	11
193	15
197	0
202	7
203	1
204	2
205	5
209	72
210	11
211	1
213	1
215	7
216	0
217	3
218	2
220	6
221	6
223	3
239	0
252	0
253	9
265	1
267	4
268	2
270	1
280	4
281	7
282	3
283	5
284	0
294	11
295	30
296	8
297	2
298	219
299	62
300	4
301	0
304	1
306	0
309	3
313	0
314	3
315	3
325	0
327	0
346	0
355	0
357	1
377	1
385	0
389	2
390	0
398	1
400	9
402	1
