Mass Spectrum: 2,11-Dodecanedione
Formula: C12H22O2
CAS: 7029-09-6
Molecular weight: 198
m/z	intensity
27	27
28	8
29	37
30	1
31	3
38	0
39	21
40	9
41	85
42	14
43	999
44	21
45	13
46	0
50	0
51	1
52	0
53	8
54	6
55	105
56	9
57	16
58	195
59	55
60	2
65	2
66	1
67	26
68	9
69	17
70	4
71	162
72	24
73	6
74	0
77	1
78	0
79	8
80	9
81	45
82	22
83	80
84	17
85	33
86	4
87	0
91	2
92	0
93	5
94	2
95	15
96	7
97	23
98	5
99	6
100	2
105	3
106	0
107	4
108	0
109	2
110	1
111	9
112	1
113	5
114	3
115	0
116	5
117	0
119	0
120	0
121	1
122	11
123	105
124	10
125	6
126	1
127	2
128	19
129	1
133	0
135	0
137	5
138	3
139	0
140	21
141	52
142	8
143	0
147	1
149	0
151	1
152	0
155	4
156	2
157	0
161	0
162	3
163	0
165	1
180	7
181	1
183	5
184	0
198	22
199	6
200	0
