Mass Spectrum: 4,8-Dimethyl-6-(p-tolyl)-5,6,7,8-tetrahydro-4H-1,3,2,6-dioxathiazocine 2-oxide
Formula: C13H19NO3S
CAS: 70291-66-6
Molecular weight: 269
m/z	intensity
90	35
91	199
92	30
105	49
115	60
117	34
118	125
119	999
120	118
132	35
133	34
134	38
144	23
146	38
147	23
160	43
161	38
162	22
225	76
226	22
269	124
270	32
