Mass Spectrum: 5-Fluoroorotic acid
Formula: C5H3FN2O4
CAS: 703-95-7
Molecular weight: 174
m/z	intensity
41	4
44	800
45	245
46	27
47	58
48	7
49	7
50	3
51	12
52	14
53	39
54	54
55	16
57	132
58	558
59	423
60	158
61	4
64	1
67	71
68	19
70	120
71	66
73	36
74	21
75	9
76	1
77	2
79	9
80	22
81	2
82	22
83	1
86	999
87	419
88	57
89	3
90	1
94	1
97	1
98	4
99	6
103	215
104	9
105	1
111	4
113	5
114	6
126	2
128	36
130	279
131	136
132	9
138	1
139	8
154	5
156	8
157	42
158	4
171	6
173	50
174	739
175	51
176	3
