Mass Spectrum: 5-Mercaptopyridoxine
Formula: C8H11NO2S
CAS: 703-46-8
Molecular weight: 185
m/z	intensity
12	4
14	10
15	76
16	6
17	30
18	109
19	52
25	3
26	78
27	257
28	171
29	146
30	19
31	115
32	25
33	66
34	53
35	11
36	3
37	26
38	92
39	540
40	71
41	110
42	240
43	160
44	35
45	217
46	34
47	84
48	5
49	14
50	98
51	268
52	155
53	275
54	79
55	131
56	19
57	14
58	49
59	46
60	9
61	16
62	29
63	93
64	55
65	224
66	82
67	92
68	37
69	59
70	28
71	38
72	6
73	5
74	12
75	15
76	17
77	200
78	80
79	177
80	72
81	79
82	66
83	28
84	14
85	26
86	4
87	4
88	2
89	5
90	5
91	16
92	130
93	47
94	110
95	35
96	55
97	178
98	67
99	15
100	5
102	2
104	24
105	27
106	999
107	102
108	46
109	37
110	20
111	22
112	6
113	5
119	2
120	18
121	18
122	153
123	119
124	92
125	19
126	14
127	2
132	3
133	13
134	163
135	21
136	27
137	10
138	50
139	17
140	5
141	4
148	4
149	4
150	32
151	713
152	167
153	16
154	23
155	3
156	3
164	2
166	426
167	251
168	46
169	18
170	2
182	3
183	2
184	4
185	191
186	29
187	11
188	2
