Mass Spectrum: 1,2-Dihydro-2-thioxo-3,1-benzoxazine-4-one
Formula: C8H5NO2S
CAS: 703-64-0
Molecular weight: 179
m/z	intensity
45	47
50	49
52	49
60	104
62	59
63	151
64	200
65	93
90	50
91	86
92	485
93	34
96	78
119	999
120	351
134	23
146	36
179	514
180	41
181	25
