Mass Spectrum: 1-Chloro-2-methylenecyclopropane
Formula: C4H5Cl
CAS: 70302-78-2
Molecular weight: 88
m/z	intensity
14	14
15	13
25	18
26	95
27	439
29	33
31	27
35	16
36	23
37	52
38	51
39	103
41	41
42	10
43	23
45	38
47	12
48	15
49	64
50	155
51	197
52	145
53	999
54	43
55	30
56	11
57	12
59	16
60	9
61	22
62	70
63	10
69	17
73	24
75	11
82	15
88	118
90	36
