Mass Spectrum: N-(2-Methoxyphenyl)isonicotinamide
Formula: C13H12N2O2
CAS: 70301-28-9
Molecular weight: 228
m/z	intensity
39	112
40	155
41	70
42	17
44	80
45	16
48	3
49	21
50	138
51	732
52	240
53	69
54	13
55	11
56	4
57	8
58	2
59	3
60	3
61	8
62	17
63	59
65	276
66	26
67	17
68	5
69	4
70	5
71	4
72	2
73	4
74	8
75	19
76	32
78	938
79	128
80	37
81	7
83	3
84	3
85	3
86	2
88	4
89	2
90	13
92	165
93	76
94	128
95	36
96	3
101	4
103	4
104	13
106	999
107	65
108	97
109	18
110	3
111	5
113	3
114	2
115	3
118	2
119	5
120	23
121	33
122	70
123	30
124	69
125	6
128	2
129	2
130	2
132	2
134	7
135	7
139	9
140	3
141	4
146	1
149	3
150	9
155	3
156	2
162	2
168	3
169	2
170	2
181	3
183	1
184	2
194	2
196	13
197	105
198	12
199	5
209	5
210	3
211	4
212	3
213	7
228	520
229	66
230	6
