Mass Spectrum: Pyrazol-3(2H)-one, 1,5-dimethyl-2-phenyl-4-(4-pyridylmethyleneimino)-
Formula: C17H16N4O
CAS: 70318-36-4
Molecular weight: 292
m/z	intensity
34	1
35	1
36	0
38	76
39	184
40	14
41	106
42	84
43	130
44	11
45	77
46	6
48	3
49	8
50	61
51	165
52	66
53	49
54	67
55	89
56	999
57	87
58	8
60	10
61	13
62	25
63	132
64	107
65	132
66	26
67	29
68	10
69	20
70	10
71	11
72	3
73	6
74	8
75	12
76	22
77	155
78	42
79	19
80	10
81	27
82	21
83	23
84	27
85	7
86	1
87	4
88	5
89	20
90	39
91	370
92	44
93	23
94	8
95	9
96	7
97	4
98	2
99	2
100	0
101	1
102	3
103	8
104	19
105	31
106	18
107	9
108	7
109	13
110	10
111	3
112	2
113	1
115	13
116	8
117	13
118	13
119	47
120	18
121	172
122	17
123	6
124	3
125	1
126	0
127	3
128	5
129	4
130	6
131	10
132	4
133	5
135	4
136	1
137	1
138	1
139	1
141	3
142	2
143	6
144	3
145	9
146	11
147	2
149	4
150	1
151	1
152	2
153	2
154	0
155	1
156	2
157	4
158	20
159	10
160	7
161	1
162	0
163	0
164	0
166	1
167	0
168	1
169	1
170	3
171	12
172	30
173	15
174	1
175	0
177	0
179	1
180	1
181	4
182	4
183	19
184	4
185	3
186	7
187	21
188	76
189	10
190	0
191	1
193	0
195	0
196	0
197	2
198	5
199	24
200	50
201	8
202	1
203	7
204	0
207	1
208	1
209	2
211	0
213	0
214	4
215	1
221	0
225	0
239	0
240	0
250	0
265	0
275	1
276	0
291	24
292	151
293	23
294	2
