Mass Spectrum: Tribenzo[c,g,m][1,2,5,6,9,12]hexaazacyclotetradecine,17,18,19,20-tetrahydro
Formula: C20H18N6
CAS: 70336-69-5
Molecular weight: 342
m/z	intensity
27	28
28	44
29	4
30	8
31	0
36	0
37	2
38	11
39	62
40	8
41	24
42	13
43	4
44	2
45	2
46	2
49	0
50	30
51	150
52	66
53	18
54	9
55	4
56	1
57	5
58	0
59	1
60	2
61	1
62	6
63	42
64	65
65	384
66	36
67	7
68	1
69	2
70	1
71	3
73	2
74	4
75	13
76	36
77	447
78	191
79	76
80	54
81	7
82	1
83	2
84	1
85	1
86	0
87	1
88	3
89	15
90	43
91	149
92	592
93	66
94	9
95	2
96	1
97	2
98	1
99	1
100	0
101	3
102	35
103	14
104	74
105	79
106	303
107	963
108	88
109	5
110	0
111	1
112	1
113	2
114	2
115	8
116	7
117	26
118	372
119	999
120	162
121	10
122	2
123	0
124	0
125	1
126	2
127	8
128	6
129	7
130	8
131	51
132	40
133	23
134	3
135	0
136	0
137	0
138	1
139	8
140	9
141	4
142	2
143	3
144	3
145	1
146	1
147	1
148	0
149	1
150	1
151	6
152	15
153	6
154	8
155	4
156	6
157	3
158	1
159	0
160	0
163	0
164	1
165	3
166	12
167	27
168	11
169	10
170	3
171	18
172	1
176	0
177	1
178	3
179	6
180	9
181	19
182	7
183	4
184	3
185	0
186	0
187	0
189	0
190	0
191	1
192	3
193	7
194	8
195	11
196	13
197	3
198	1
203	0
204	0
205	1
206	10
207	31
208	134
209	23
210	30
211	5
212	16
213	2
214	0
215	0
216	0
217	0
218	0
219	0
220	4
221	53
222	25
223	489
224	213
225	21
226	1
227	0
228	0
229	0
230	0
231	0
232	0
233	3
234	10
235	38
236	12
237	3
238	1
239	1
240	0
241	0
242	0
243	0
244	0
245	0
246	0
247	0
248	0
249	0
250	0
251	0
253	0
254	0
255	0
256	0
257	0
258	0
268	0
269	0
270	0
271	0
272	0
273	0
279	0
280	0
281	0
282	0
283	0
284	0
285	0
295	0
296	0
297	0
298	0
299	0
326	0
327	0
340	1
341	1
342	348
343	70
344	1
