Mass Spectrum: 4-(1-Methoxyiminoethyl)-2,2,5,5-tetramethyl-3-imidazoline-3-oxide-1-oxyl
Formula: C10H18N3O3
CAS: 70345-92-5
Molecular weight: 228
m/z	intensity
37	11
38	27
39	375
40	127
41	731
42	990
43	446
44	56
45	77
46	3
48	2
50	10
51	36
52	52
53	305
54	175
55	803
56	785
57	53
58	254
59	79
60	6
72	999
73	171
74	132
75	8
76	3
77	39
78	13
79	57
80	143
81	109
82	253
83	154
88	24
91	7
92	15
93	36
94	275
95	271
96	74
97	19
98	50
99	58
100	30
101	2
105	4
106	6
109	313
110	111
111	116
112	19
113	2
114	5
115	3
117	2
118	3
119	6
120	9
121	21
122	76
123	22
124	75
125	138
126	140
127	10
128	1
129	1
132	4
133	14
134	29
135	277
136	61
137	50
138	13
139	63
140	93
141	37
142	17
143	2
146	1
147	4
148	14
150	71
151	157
152	50
153	10
154	3
155	59
156	313
157	29
158	3
163	2
164	12
165	113
166	213
167	588
168	71
169	5
178	2
179	6
180	4
181	316
182	74
183	78
184	8
185	1
196	15
197	27
198	239
199	29
200	2
205	3
212	6
213	57
214	9
218	2
219	1
228	642
229	225
230	19
231	1
