Mass Spectrum: Benzene, 1-(2,2-dibromocyclopropyl)-4-nitro-
Formula: C9H7Br2NO2
CAS: 70372-55-3
Molecular weight: 319
m/z	intensity
37	20
38	47
39	128
40	6
41	6
42	0
43	3
44	2
46	23
48	0
49	6
50	114
51	100
52	18
53	6
54	0
55	5
58	99
59	0
60	0
61	27
62	97
63	204
64	30
65	65
66	4
72	0
73	9
74	57
75	54
76	34
77	94
78	17
79	14
80	7
81	13
82	7
83	0
84	2
85	12
86	33
87	55
88	52
89	139
90	18
91	9
92	1
93	8
94	0
95	3
97	5
98	7
99	3
100	2
101	9
102	78
103	71
104	8
105	6
106	3
107	7
108	0
109	2
110	4
111	2
113	54
114	152
115	999
116	104
117	13
118	1
119	10
120	0
127	0
128	1
129	2
130	13
131	30
132	3
133	0
136	0
137	0
140	0
141	1
142	0
143	2
144	38
145	7
146	0
149	0
154	0
155	0
156	1
157	0
158	1
160	63
161	133
162	14
163	1
165	0
167	1
168	0
169	6
170	4
171	6
172	8
173	1
174	3
175	0
180	1
181	0
182	1
183	0
184	1
185	0
186	1
188	0
193	53
194	198
195	70
196	190
197	23
199	9
201	4
209	0
210	0
211	0
212	0
223	27
224	4
225	27
226	3
240	104
241	1
242	101
243	10
244	0
273	2
274	0
275	5
276	0
277	2
302	1
304	2
305	0
306	1
319	6
321	13
322	0
323	6
324	0
