Mass Spectrum: Pyrimidine, 2-trifluoromethylsulfonyl-4,6-dimethyl-
Formula: C7H7F3N2O2S
CAS: 70371-88-9
Molecular weight: 240
m/z	intensity
37	8
38	33
39	138
40	52
41	21
42	102
43	4
44	1
48	1
51	2
52	3
53	12
54	0
63	1
64	11
65	10
66	65
67	476
68	25
69	54
80	22
91	0
105	2
106	9
107	999
108	65
155	3
171	40
221	0
240	73
241	6
242	0
