Mass Spectrum: 6,6-Dimethyl-9-methylene-undecane-2,5,10-trione
Formula: C14H22O3
CAS: 70412-59-8
Molecular weight: 238
m/z	intensity
26	5
27	47
28	14
29	45
39	57
40	26
41	160
42	26
43	999
44	33
45	20
50	5
51	11
52	6
53	43
54	10
55	108
56	38
57	55
58	8
59	12
65	14
66	6
67	45
68	12
69	77
70	22
71	163
72	18
77	28
78	6
79	49
80	9
81	141
82	19
83	25
84	58
85	61
86	6
91	26
92	6
93	78
94	10
95	124
96	24
97	112
98	20
99	881
100	67
101	9
105	29
106	8
107	19
108	6
109	46
110	11
111	18
112	5
113	6
119	14
121	264
122	36
123	46
124	30
125	35
126	7
127	7
133	6
135	10
136	5
137	10
138	7
139	265
140	195
141	25
142	182
143	19
145	7
153	5
155	10
156	8
159	6
163	8
165	9
167	15
168	5
177	9
180	12
181	8
195	6
209	6
220	9
221	5
238	4
