Mass Spectrum: N-(2-Phenylethyl)-undecafluorohexanamide
Formula: C14H10F11NO
CAS: 70414-01-6
Molecular weight: 417
m/z	intensity
39	29
51	30
65	69
69	100
77	40
78	29
91	449
92	50
103	40
104	999
105	249
119	40
326	20
417	9
