Mass Spectrum: .beta.-Methylphenethylamine, N-heptafluorobutyryl-
Formula: C13H12F7NO
CAS: 70414-03-8
Molecular weight: 331
m/z	intensity
27	7
28	5
29	3
30	1
31	1
38	1
39	11
40	1
41	8
42	1
43	1
44	2
50	6
51	23
52	6
53	4
54	1
56	3
58	4
62	2
63	8
64	2
65	12
66	2
69	45
70	1
74	3
75	3
76	6
77	104
78	41
79	98
80	6
81	5
84	1
87	1
89	9
90	5
91	107
92	10
93	1
100	10
101	2
102	12
103	103
104	40
105	999
106	90
107	5
108	3
109	7
110	1
115	27
116	8
117	65
118	646
119	104
120	7
121	1
128	5
129	1
130	2
131	3
132	3
133	4
134	1
146	2
147	1
148	1
150	1
159	1
160	1
162	6
163	1
169	57
170	2
178	5
179	1
194	1
197	3
198	1
208	2
226	34
227	7
252	1
292	5
293	1
312	1
314	1
315	1
316	1
329	1
330	1
331	3
332	1
