Mass Spectrum: 7-Chloro-2-methyl-3-(4-methyl-1-piperazinyl)-1,2,4-benzothiadiazine 1,1,4'-trioxide
Formula: C12H15ClN4O3S
CAS: 70443-36-6
Molecular weight: 330
m/z	intensity
55	37
56	128
57	42
58	78
60	28
68	17
69	77
70	999
71	98
75	15
81	21
82	67
83	553
84	41
85	25
95	28
96	26
97	87
98	85
99	21
124	69
125	15
126	27
138	14
140	13
165	72
166	35
167	32
168	12
179	14
181	24
192	12
194	43
196	14
206	42
207	12
208	22
220	24
229	25
246	66
247	12
248	25
258	132
259	18
260	51
270	18
271	17
272	16
