Mass Spectrum: Boron, (hexahydro-2H-azepin-2-onato-N1,O2)bis(1-methylethyl)-, (t-4)-
Formula: C12H24BNO
CAS: 70440-14-1
Molecular weight: 209
m/z	intensity
25	0
26	4
27	29
28	12
29	32
30	18
31	0
37	0
38	1
39	22
40	10
41	104
42	68
43	39
44	2
45	1
50	0
51	1
52	2
53	13
54	38
55	124
56	12
57	1
58	0
63	0
64	0
65	2
66	5
67	22
68	22
69	84
70	7
71	7
72	0
73	0
74	0
77	1
78	0
79	12
80	4
81	3
82	2
83	1
84	5
85	3
86	0
87	0
88	0
89	0
91	0
92	0
93	0
94	4
95	4
96	999
97	64
98	2
99	0
106	0
107	0
108	0
109	0
110	0
111	1
112	1
113	10
114	1
115	0
116	0
117	0
119	0
120	0
121	0
122	1
123	1
124	4
125	0
126	0
128	0
129	0
135	0
136	1
137	1
138	2
139	0
140	1
141	0
143	0
149	0
150	1
151	1
152	1
153	0
154	0
155	0
156	0
163	0
164	1
165	61
166	271
167	28
168	3
169	0
170	0
173	0
177	0
178	1
179	0
180	0
181	0
182	0
183	0
184	1
185	0
191	0
192	0
193	2
194	4
195	0
