Mass Spectrum: 1-Propanol, 2-benzyloxy-
Formula: C10H14O2
CAS: 70448-03-2
Molecular weight: 166
m/z	intensity
25	0
26	4
27	27
28	3
29	26
30	2
31	106
33	0
37	1
38	6
39	73
40	4
41	33
42	5
43	26
44	2
45	42
46	0
49	0
50	14
51	45
52	13
53	5
55	0
57	4
58	1
59	4
61	0
62	6
63	29
64	10
65	149
66	7
73	0
74	2
75	6
76	2
77	46
78	12
79	38
80	3
86	0
87	0
89	29
90	17
91	999
92	201
93	11
94	0
103	0
104	3
105	12
106	3
107	64
108	6
109	0
115	0
119	0
122	1
125	0
133	0
134	0
135	89
136	9
137	0
148	24
149	3
150	0
166	44
167	4
168	0
