Mass Spectrum: Cyclohexane, 2-ethyl-1,3-dimethyl-
Formula: C10H20
CAS: 7045-67-2
Molecular weight: 140
m/z	intensity
22	0
23	1
25	2
26	7
27	102
28	27
29	136
30	3
31	0
32	0
33	0
34	1
36	6
37	2
38	2
39	99
41	361
42	72
43	156
45	0
48	0
49	1
50	2
51	10
52	5
53	43
54	21
55	719
56	229
57	121
58	4
63	1
65	10
66	5
67	63
68	30
69	999
70	157
71	19
77	10
78	2
79	7
80	1
81	20
82	39
83	101
84	47
85	14
88	3
91	2
92	0
93	0
95	27
96	13
97	76
98	16
109	4
110	34
111	630
112	58
113	2
119	0
125	3
126	1
140	54
141	6
