Mass Spectrum: Oxetane, 2-methyl-4-propyl-
Formula: C7H14O
CAS: 7045-79-6
Molecular weight: 114
m/z	intensity
36	11
37	51
38	76
39	612
40	98
41	999
42	565
43	654
44	54
45	156
46	12
50	38
51	41
52	21
53	78
54	64
55	633
56	464
57	188
58	45
59	113
61	5
62	5
65	22
66	14
67	141
68	17
69	52
70	226
71	180
72	58
73	179
74	9
77	10
79	32
81	121
82	22
83	14
84	33
85	108
86	11
96	16
97	18
98	9
99	105
100	12
113	5
