Mass Spectrum: 1,9-Phenazine bis-[3-diethylaminopropyl carboxamide]
Formula: C28H40N6O2
CAS: 70452-10-7
Molecular weight: 492
m/z	intensity
41	71
42	152
43	71
44	132
45	45
46	254
47	5
50	6
51	12
52	8
53	4
54	13
55	16
56	113
57	36
58	317
59	31
60	44
61	14
62	2
63	6
64	2
65	4
66	3
67	3
68	7
69	7
70	34
71	19
72	174
73	55
74	332
75	23
76	9
77	13
78	24
79	5
80	2
81	2
82	11
83	4
84	174
85	10
86	995
87	99
88	23
89	120
90	11
91	3
92	1
93	1
94	6
95	3
96	6
97	4
98	26
99	14
100	41
101	12
102	8
103	24
105	2
106	14
107	2
108	1
109	1
110	9
111	16
112	999
113	93
114	10
115	3
116	2
117	40
121	2
122	1
123	2
124	14
125	7
126	4
127	18
128	5
129	9
130	1
131	7
138	2
139	3
140	4
141	1
146	7
150	3
151	27
152	22
153	10
154	3
155	1
157	2
159	3
160	4
164	3
165	5
166	4
167	4
168	1
174	4
176	1
177	9
178	51
179	78
180	54
181	11
182	8
191	2
192	10
193	10
194	11
195	3
203	1
204	18
205	30
206	106
207	45
208	25
209	4
210	1
216	1
217	3
218	43
219	17
220	20
221	10
222	11
223	38
224	10
225	18
226	3
230	2
231	7
232	28
233	9
234	21
235	56
236	12
237	7
238	2
243	1
244	3
245	5
246	9
247	4
248	6
249	15
250	30
251	36
252	8
253	1
259	2
260	2
261	7
262	9
263	58
264	21
265	12
266	3
267	1
268	7
269	1
273	2
274	1
275	4
276	10
277	8
278	4
279	3
280	1
289	3
290	24
291	54
292	11
293	3
294	2
306	3
307	22
308	56
309	11
319	6
320	3
321	2
322	2
333	4
334	6
335	4
336	5
337	2
346	7
347	6
348	8
349	2
350	3
351	2
352	3
353	3
362	1
363	2
364	3
379	4
380	24
381	9
382	1
390	4
391	12
392	7
393	7
394	1
406	3
407	4
419	15
420	6
421	9
422	2
436	5
437	1
452	3
463	4
464	20
465	6
480	0
490	1
491	4
492	60
493	21
494	4
