Mass Spectrum: 1,9-Phenazine bis-[3-[N-[2-dimethylaminoethyl]-N-methyl]amino-propylcarboxamide
Formula: C30H46N8O2
CAS: 70452-11-8
Molecular weight: 550
m/z	intensity
41	60
42	276
43	97
44	237
45	68
46	7
47	2
50	4
51	7
52	7
53	6
54	10
55	16
56	50
57	51
58	999
59	63
60	43
61	26
62	2
63	3
65	3
66	2
67	2
68	4
69	4
70	49
71	23
72	162
73	14
74	3
75	2
76	2
77	5
78	13
79	3
81	2
82	6
83	8
84	51
85	16
86	8
87	3
89	2
90	2
94	4
95	2
96	7
97	6
98	10
99	35
100	9
101	6
102	6
103	3
106	5
111	2
113	5
114	3
115	18
116	2
117	3
118	2
124	4
125	2
126	2
127	3
129	3
139	2
141	77
142	7
151	5
152	4
153	2
165	3
177	2
178	13
179	25
180	15
181	2
192	7
193	4
194	3
204	8
205	10
206	28
207	14
208	4
218	2
219	3
220	14
221	4
222	2
223	7
231	2
232	14
233	3
234	10
235	26
236	4
237	2
249	3
250	9
251	6
261	2
262	2
263	10
264	4
276	3
290	9
291	2
292	2
307	3
308	2
319	3
347	4
390	4
392	3
421	2
447	2
478	5
479	2
491	3
492	57
493	20
494	3
550	3
