Mass Spectrum: cis-Chrysanthenyl propionate
Formula: C13H20O2
CAS: 70470-69-8
Molecular weight: 208
m/z	intensity
26	2
27	22
28	7
29	113
30	2
31	1
38	1
39	40
40	6
41	87
42	6
43	52
44	2
45	3
50	3
51	15
52	7
53	37
54	5
55	51
56	9
57	999
58	35
59	76
60	3
62	1
63	7
64	2
65	43
66	9
67	52
68	9
69	65
70	10
71	5
72	19
73	2
74	2
75	2
76	1
77	74
78	17
79	79
80	92
81	125
82	40
83	29
84	36
85	3
89	3
90	1
91	134
92	62
93	90
94	78
95	83
96	42
97	11
100	2
102	1
103	11
105	67
106	19
107	110
108	31
109	204
110	23
111	3
112	1
115	19
117	11
118	3
119	673
120	68
121	151
122	15
123	103
124	12
125	1
128	27
134	257
135	37
136	3
137	57
138	6
139	1
150	1
151	13
152	11
153	1
165	1
179	1
180	1
193	1
208	2
