Mass Spectrum: 1,6-Cyclodecadiene
Formula: C10H16
CAS: 7049-13-0
Molecular weight: 136
m/z	intensity
25	0
26	27
27	400
28	92
29	151
30	3
37	6
38	30
39	613
40	113
41	735
42	60
43	16
44	0
45	1
46	0
49	1
50	35
51	99
52	58
53	269
54	416
55	156
56	8
57	3
58	2
59	0
61	1
62	7
63	25
64	7
65	130
66	117
67	999
68	412
69	54
70	2
73	0
74	4
75	3
77	188
78	66
79	743
80	279
81	233
82	167
83	11
87	1
89	3
91	141
92	24
93	411
94	295
95	451
96	37
97	1
98	0
102	1
103	4
104	2
105	16
106	4
107	196
108	127
109	12
110	1
115	4
116	1
117	2
119	2
121	187
122	18
123	1
127	0
128	2
129	0
132	0
133	0
134	1
135	4
136	313
137	36
138	2
