Mass Spectrum: Pregnane-3,20-diamine, (3.beta.,5.alpha.,20S)-
Formula: C21H38N2
CAS: 7050-25-1
Molecular weight: 318
m/z	intensity
41	20
42	10
43	50
44	999
45	40
49	20
53	20
55	30
56	150
57	20
67	20
68	10
69	30
70	50
71	20
76	10
78	30
79	10
80	40
81	50
82	20
90	20
92	20
93	100
94	50
95	10
102	20
105	20
106	10
107	20
108	10
109	20
110	10
119	10
121	20
122	10
123	20
135	20
137	10
147	10
148	10
149	10
161	10
162	10
163	10
243	20
244	10
257	20
259	100
260	20
275	500
276	100
277	10
302	20
317	10
318	10
