Mass Spectrum: 2H-Inden-2-one, 1,3,3a,4,5,7a-hexahydro-, trans-
Formula: C9H12O
CAS: 70501-28-9
Molecular weight: 136
m/z	intensity
26	34
27	230
29	67
31	22
38	22
39	360
40	67
41	326
42	67
43	56
44	11
50	45
51	101
52	67
53	123
54	225
55	45
56	22
57	11
58	45
62	11
63	22
65	124
66	146
67	292
68	45
69	23
70	6
71	11
72	11
77	281
78	101
79	999
80	169
81	45
82	198
83	11
91	281
92	270
93	444
94	371
95	67
96	6
104	11
105	34
106	6
107	34
108	455
109	45
117	34
118	11
121	17
136	646
137	67
138	11
