Mass Spectrum: 1,1'-Bicyclobutyl
Formula: C8H14
CAS: 7051-52-7
Molecular weight: 110
m/z	intensity
41	35
53	10
54	410
55	20
66	40
67	999
68	110
69	40
81	120
82	250
83	20
95	20
109	3
