Mass Spectrum: 3-(4-Aminophenyl)-N-methylpropanamide
Formula: C10H14N2O
CAS: 705256-69-5
Molecular weight: 178
m/z	intensity
29	53
30	198
31	32
39	31
40	9
41	13
42	28
43	7
44	27
51	15
52	12
53	6
54	6
55	4
58	77
63	8
65	38
66	9
77	62
78	22
79	22
80	7
89	11
91	57
92	23
93	50
94	6
103	13
104	19
106	999
107	91
108	10
117	16
118	70
119	267
120	103
121	5
132	24
133	11
142	14
147	19
148	27
149	5
163	5
178	272
179	28
180	2
