Mass Spectrum: 5-Chloropentanoic acid, 3-methylbutyl ester
Formula: C10H19ClO2
CAS: 70543-40-7
Molecular weight: 206
m/z	intensity
25	3
26	54
27	220
28	32
29	212
30	9
35	13
36	88
37	13
38	30
39	205
40	97
41	454
42	347
43	512
44	12
50	24
51	63
52	48
53	65
54	45
55	948
56	244
57	259
58	49
59	23
60	34
61	6
62	25
63	45
64	10
65	20
66	4
67	11
68	11
69	82
70	999
71	402
72	12
73	125
74	9
75	15
76	5
77	10
78	8
79	50
80	7
81	3
82	9
83	56
84	8
85	11
87	34
88	7
89	6
90	8
91	253
92	16
93	89
94	5
95	6
97	5
99	4
100	96
101	100
102	11
105	19
107	4
109	3
113	7
114	4
115	21
117	5
118	21
119	497
120	38
121	171
122	8
130	4
131	4
133	20
135	9
136	15
137	53
138	8
139	18
140	2
141	4
147	3
148	2
150	14
151	30
152	9
153	10
154	3
156	2
157	4
161	3
163	24
165	8
171	9
