Mass Spectrum: 5-Chloropentanoic acid, 2-butyl ester
Formula: C9H17ClO2
CAS: 70543-38-3
Molecular weight: 192
m/z	intensity
25	3
26	65
27	327
28	61
29	429
30	25
39	246
40	90
41	710
42	359
43	197
44	10
50	44
51	68
52	57
53	76
54	55
55	866
56	999
57	705
58	56
59	37
60	49
61	4
62	13
63	36
64	6
65	19
66	4
67	7
68	7
69	28
70	36
71	20
72	12
73	251
74	30
75	15
76	5
77	7
78	13
79	68
80	7
81	5
82	14
83	68
84	8
85	8
87	23
89	3
90	8
91	295
92	16
93	110
94	9
95	9
96	2
97	7
98	8
99	7
100	136
101	107
102	12
105	11
107	3
110	5
111	6
112	7
113	6
114	4
115	4
116	2
117	4
118	10
119	883
120	57
121	265
122	18
133	4
135	6
136	58
137	116
138	26
139	41
140	4
163	13
165	4
