Mass Spectrum: Mebenil
Formula: C14H13NO
CAS: 7055-03-0
Molecular weight: 211
m/z	intensity
50	12
51	28
52	10
54	12
63	29
64	21
65	118
66	21
89	42
90	42
91	514
92	49
93	31
119	999
120	77
211	295
212	49
