Mass Spectrum: Chloro-methyl-methoxy-amine
Formula: C2H6ClNO
CAS: 70569-68-5
Molecular weight: 95
m/z	intensity
29	162
30	546
31	629
32	211
33	467
34	46
37	30
38	101
39	18
40	19
45	30
46	30
47	147
48	9
50	55
52	18
60	999
61	56
62	8
64	174
65	10
66	58
67	3
80	56
81	15
82	19
83	5
95	258
96	7
97	86
98	2
