Mass Spectrum: N,N-Dimethoxy-1,1-dimethyl-2-carbomethoxyethylamine
Formula: C8H17NO4
CAS: 70569-71-0
Molecular weight: 191
m/z	intensity
43	91
44	21
45	61
46	6
55	263
56	373
57	41
58	43
59	161
60	11
70	141
71	51
72	73
73	999
74	121
75	10
83	432
84	39
88	782
89	21
115	753
116	121
117	12
129	303
130	43
146	51
159	43
160	302
161	72
162	11
176	21
191	62
192	6
193	1
