Mass Spectrum: N-Methoxy-N-ethoxy-1,1-dimethyl-2-carbomethoxyethylamine
Formula: C9H19NO4
CAS: 70569-72-1
Molecular weight: 205
m/z	intensity
41	82
42	281
43	203
44	143
45	201
46	19
55	296
56	403
57	61
58	141
59	263
60	63
61	9
70	122
71	63
72	62
73	999
74	161
75	18
83	563
84	62
85	7
86	121
87	63
88	9
102	325
103	22
114	305
115	586
116	53
117	7
129	165
130	21
160	133
161	22
174	101
175	32
205	22
206	2
