Mass Spectrum: 2(1H)-Naphthalenone, octahydro-4a,7,7-trimethyl-, cis-
Formula: C13H22O
CAS: 7056-56-6
Molecular weight: 194
m/z	intensity
40	92
41	999
42	146
43	261
44	30
50	15
51	46
52	30
53	253
54	61
55	769
56	130
57	223
58	15
59	7
63	15
65	61
66	30
67	323
68	207
69	592
70	100
71	76
77	84
78	15
79	123
80	30
81	315
82	161
83	415
84	146
85	15
91	69
92	7
93	84
94	23
95	253
96	53
97	123
98	15
105	46
106	92
107	92
108	30
109	438
110	84
111	61
112	7
119	61
120	7
121	153
122	123
123	446
124	469
125	84
126	15
133	15
135	15
136	107
137	138
138	46
139	69
140	7
147	7
151	30
161	123
162	15
163	7
165	46
166	7
176	23
179	115
180	7
194	207
195	38
