Mass Spectrum: Methyl 3-methyl-3-(methoxy-chloro)amino-butanoate
Formula: C7H14ClNO3
CAS: 70569-70-9
Molecular weight: 195
m/z	intensity
29	163
30	79
31	135
41	58
42	104
43	93
44	116
45	207
46	123
50	121
54	132
55	755
56	144
59	565
70	230
72	119
73	456
74	143
77	63
82	617
83	852
84	77
86	228
99	77
103	65
104	32
114	999
115	234
119	64
121	13
128	13
131	12
