Mass Spectrum: Didodecyl phosphate
Formula: C24H51O4P
CAS: 7057-92-3
Molecular weight: 434
m/z	intensity
17	2
18	9
27	8
28	5
29	20
31	1
39	9
40	1
41	59
42	20
43	89
44	3
45	1
53	4
54	11
55	104
56	83
57	85
58	3
65	1
66	1
67	17
68	17
69	98
70	75
71	37
72	2
77	1
79	2
80	1
81	9
82	21
83	72
84	40
85	20
86	1
91	2
95	3
96	9
97	51
98	19
99	999
100	2
101	8
109	1
110	4
111	21
112	9
113	4
124	2
125	9
126	4
127	9
138	1
139	3
140	6
141	1
148	1
153	2
167	1
168	9
169	3
207	1
267	82
268	10
269	1
278	1
295	1
435	20
436	5
437	1
