Mass Spectrum: 2-Methyl-2,3-divinyloxirane
Formula: C7H10O
CAS: 70597-50-1
Molecular weight: 110
m/z	intensity
26	74
27	433
28	140
29	204
31	26
37	27
38	72
39	943
40	87
41	452
42	51
43	902
44	20
45	21
47	8
49	23
50	71
51	134
52	51
53	570
54	313
55	586
56	31
57	319
58	28
61	16
62	17
63	35
64	8
65	110
66	176
67	999
68	92
69	53
70	66
71	17
73	11
74	11
75	14
77	110
78	21
79	267
80	32
81	900
82	257
83	30
84	12
85	8
91	53
92	24
93	20
94	16
95	379
96	19
108	9
109	148
110	887
111	43
