Mass Spectrum: 2-Propenyl-3-vinyloxirane
Formula: C7H10O
CAS: 70597-49-8
Molecular weight: 110
m/z	intensity
25	0
26	16
27	219
28	22
29	61
30	1
31	3
36	0
37	5
38	14
39	201
40	17
41	174
42	10
43	27
44	2
45	5
47	1
48	0
49	3
50	21
51	35
52	16
53	170
54	33
55	999
56	25
57	13
58	13
59	2
60	1
61	4
62	4
63	9
64	2
65	34
66	31
67	203
68	20
69	51
70	5
71	5
72	0
73	1
74	3
75	3
76	1
77	43
78	5
79	103
80	19
81	559
82	64
83	12
84	2
85	3
86	0
87	1
88	0
89	2
90	1
91	22
92	13
93	6
94	3
95	211
96	8
97	3
98	1
99	0
101	0
104	1
105	1
106	1
107	3
108	2
109	19
110	230
111	11
112	1
