Mass Spectrum: L-Glutamine, 3TMS derivative
Formula: C14H34N2O3Si3
CAS: 70591-28-5
Molecular weight: 362
m/z	intensity
52	3
54	7
55	12
56	34
57	17
58	16
59	55
60	13
61	21
62	3
63	5
66	8
68	3
70	10
71	5
72	30
73	999
74	105
75	450
76	35
77	98
78	7
79	4
82	3
83	38
84	21
85	8
86	10
87	4
89	3
90	7
92	4
93	6
95	4
98	9
99	5
100	70
101	13
102	9
103	15
107	3
112	12
113	14
114	43
115	30
116	32
117	17
118	4
119	4
121	3
126	26
127	7
128	83
129	25
130	25
131	78
132	22
133	39
134	6
135	5
139	48
140	15
141	5
142	24
143	5
144	10
145	47
146	11
147	273
148	46
149	37
150	4
151	3
153	5
154	9
155	861
156	880
157	138
158	46
159	5
160	3
167	5
171	3
172	9
173	30
174	11
175	3
183	3
185	6
188	21
189	4
200	4
202	12
203	86
204	28
205	9
211	7
213	3
214	3
216	18
217	7
218	40
219	11
220	3
221	5
227	63
228	21
229	61
230	34
231	11
232	22
233	4
244	10
245	294
246	68
247	27
248	6
255	3
257	33
258	18
259	5
272	9
273	20
274	5
275	3
291	3
301	22
302	5
303	3
317	13
318	3
319	5
329	4
344	13
345	6
347	80
348	23
349	11
362	25
363	7
364	3
