Mass Spectrum: 2,4,5,6-Tetrachloro-nicotinamide
Formula: C6H2Cl4N2O
CAS: 70593-60-1
Molecular weight: 258
m/z	intensity
33	49
34	24
35	84
36	200
37	51
38	126
40	318
41	17
42	21
44	999
47	132
48	56
49	71
50	21
51	24
52	11
53	11
54	1
55	16
56	10
57	6
59	15
60	20
61	19
62	74
63	37
64	31
65	8
66	2
67	1
68	4
69	5
71	58
72	18
73	45
74	124
75	73
76	14
77	13
78	8
82	12
83	75
84	76
85	58
86	43
87	33
88	7
89	13
90	19
91	15
93	0
94	58
95	6
96	36
97	24
98	15
99	20
100	8
101	7
102	7
104	7
105	7
106	27
107	14
108	39
109	191
110	60
111	78
112	16
113	5
115	9
116	14
118	142
119	31
120	87
121	21
122	21
123	4
125	3
127	2
129	0
132	21
134	18
135	1
136	2
141	7
143	8
144	84
146	74
147	10
148	13
153	62
155	72
156	2
157	15
159	3
160	3
161	2
168	2
170	4
171	0
172	10
174	5
179	87
180	74
181	78
182	64
183	27
184	16
190	0
193	2
195	5
197	2
205	2
206	2
214	112
215	39
216	133
217	40
218	62
219	16
220	12
221	1
238	1
240	17
242	468
244	582
245	54
246	231
247	19
248	51
250	1
258	202
259	29
260	227
261	24
262	106
263	7
264	20
