Mass Spectrum: 3-Nonen-1-yne, (E)-
Formula: C9H14
CAS: 70600-49-6
Molecular weight: 122
m/z	intensity
22	1
23	4
24	2
25	5
26	33
27	438
28	62
29	965
30	22
31	5
33	2
34	3
35	4
36	3
37	26
38	62
39	753
40	133
41	912
42	672
43	115
44	40
45	2
46	0
47	1
48	3
49	7
50	99
51	182
52	257
53	158
54	48
55	633
56	84
57	199
58	13
59	7
60	1
61	11
62	32
63	101
64	35
65	428
66	319
67	198
68	89
69	94
70	170
71	12
72	2
73	3
74	14
75	28
76	12
77	496
78	142
79	999
80	317
81	145
82	26
83	14
84	0
85	1
86	2
87	3
88	1
89	23
90	5
91	328
92	46
93	533
94	89
95	11
96	5
102	3
103	10
104	2
105	33
106	6
107	229
108	22
113	0
114	1
115	29
116	22
117	16
118	10
119	2
120	10
121	14
122	194
123	15
