Mass Spectrum: Thiophene-2-carboxamide, N-mesityl-
Formula: C14H15NOS
CAS: 70608-30-9
Molecular weight: 245
m/z	intensity
33	0
34	0
36	0
37	5
38	17
39	147
40	12
41	19
42	8
43	2
44	2
45	31
46	1
47	2
48	0
49	2
50	13
51	22
52	14
53	23
54	5
55	3
56	2
57	38
58	13
59	3
60	0
61	0
62	3
63	18
64	7
65	43
66	13
67	7
68	2
69	5
70	1
71	1
72	1
73	0
74	2
75	3
76	4
77	48
78	16
79	33
80	7
81	18
82	28
83	94
84	14
85	7
86	1
87	1
88	1
89	14
90	7
91	141
92	22
93	11
94	5
95	1
96	0
97	1
98	0
99	1
100	0
101	1
102	6
103	16
104	13
105	26
106	18
107	13
108	2
109	3
111	999
112	66
113	49
114	4
115	32
116	17
117	35
118	44
119	41
120	9
121	5
122	1
123	0
125	0
126	0
127	0
128	1
129	1
130	9
131	4
132	34
133	19
134	316
135	42
136	30
137	2
138	0
139	0
140	0
141	1
142	1
143	0
144	1
145	2
146	6
147	2
148	0
149	0
150	0
151	0
152	0
153	0
154	1
155	0
156	0
157	1
158	0
159	1
160	6
161	3
162	1
163	0
164	0
165	0
166	0
167	1
168	1
169	1
170	0
171	1
172	0
173	0
174	0
175	0
176	0
177	0
178	0
179	0
180	0
181	0
182	1
183	0
184	2
185	1
186	1
187	1
188	0
192	0
193	0
194	1
195	0
196	0
197	0
198	3
199	0
200	2
201	1
202	1
203	0
210	1
211	1
212	41
213	8
214	2
215	1
216	0
217	0
222	0
226	0
227	0
228	6
229	2
230	9
231	1
232	0
242	0
243	0
245	308
246	49
247	17
248	2
249	0
250	0
