Mass Spectrum: Ethanimidamide, N-[1-[(butylchloroboryl)oxy]-2-chloroethylidene]-2-chloro-
Formula: C8H14BCl3N2O
CAS: 70609-32-4
Molecular weight: 270
m/z	intensity
26	600
27	700
28	999
29	550
35	300
36	800
41	700
42	200
43	600
44	550
46	150
54	250
55	500
56	500
57	600
73	350
75	150
101	250
129	100
142	150
150	150
178	50
186	250
206	100
235	750
