Mass Spectrum: Cyclohexanecarboxylic acid, 4-butyl-, 4-butylphenyl ester
Formula: C21H32O2
CAS: 70602-94-7
Molecular weight: 316
m/z	intensity
27	67
28	23
29	114
30	8
39	10
42	59
43	71
44	12
50	8
51	32
52	25
54	110
55	33
56	48
57	156
58	15
63	15
65	30
66	31
67	40
68	59
70	30
71	63
77	47
78	103
83	692
84	81
85	15
89	15
93	4
94	24
96	88
97	211
98	30
107	999
108	98
110	40
121	30
122	10
127	6
130	12
134	8
135	52
136	9
137	26
139	293
140	33
141	6
142	5
144	10
146	5
147	8
148	42
150	798
151	98
152	10
163	5
166	494
167	173
168	20
316	60
317	15
