Mass Spectrum: 2,6-Dichlorobenzaldehyde 4-[2-diethylaminoethyl]thiosemicarbazone
Formula: C14H20Cl2N4S
CAS: 70619-37-3
Molecular weight: 346
m/z	intensity
42	168
43	55
44	114
45	10
46	4
47	5
48	1
49	6
50	11
51	8
52	2
53	2
54	16
55	19
56	136
57	35
58	185
59	25
60	48
61	12
62	16
63	17
64	2
65	1
66	0
67	1
68	9
69	18
70	54
71	96
72	50
73	24
74	31
75	38
76	7
77	1
78	0
79	0
80	0
81	1
82	2
83	3
84	71
86	999
87	32
88	7
89	11
90	10
91	1
92	0
93	0
94	0
95	1
96	4
97	13
99	452
100	69
101	19
102	7
103	28
104	1
105	1
107	1
109	23
110	8
111	15
112	5
113	6
114	2
115	7
116	2
117	6
118	5
119	1
120	0
121	0
123	31
124	7
125	12
126	5
127	2
128	3
129	2
130	2
131	5
132	0
133	2
134	0
135	1
136	34
137	5
138	12
139	2
140	3
142	4
143	2
145	14
146	6
147	9
148	4
149	1
150	1
151	1
152	5
153	5
154	2
155	2
157	3
158	1
159	9
160	2
161	1
162	0
163	0
165	0
169	1
171	7
172	34
173	11
174	26
175	4
176	5
177	1
178	0
186	0
188	0
189	0
190	0
191	0
195	1
197	0
201	1
204	0
206	0
214	0
222	1
230	0
231	3
233	2
235	0
240	0
248	1
250	1
272	0
274	7
275	1
276	5
277	0
278	1
311	0
313	0
315	0
317	0
346	28
347	5
348	20
349	3
350	4
351	0
