Mass Spectrum: 4-Carbethoxymethyl-3-thiosemicarbazone 2-acetylpyridine
Formula: C12H16N4O2S
CAS: 70618-68-7
Molecular weight: 280
m/z	intensity
41	50
42	179
43	55
44	27
45	71
46	34
47	31
48	10
49	86
50	93
51	424
52	275
53	102
54	34
55	100
56	21
57	61
58	25
59	61
60	147
61	20
62	17
63	24
64	17
65	31
66	18
67	29
68	6
69	10
70	7
71	11
72	408
73	41
74	86
75	19
76	37
77	137
78	999
79	871
80	109
81	7
82	5
83	9
84	5
85	0
86	4
87	29
88	11
89	7
90	52
91	12
92	38
93	27
94	25
95	3
96	2
97	4
98	2
99	13
100	9
101	11
102	50
103	15
104	239
105	227
106	822
107	81
108	8
109	1
110	3
111	14
112	6
113	1
114	0
115	4
116	7
117	10
118	40
119	54
120	157
121	536
122	45
123	4
124	27
125	3
126	3
127	1
128	48
129	8
130	12
131	17
132	41
133	35
134	356
135	52
136	11
137	7
138	54
139	102
140	10
141	5
142	4
143	0
144	9
145	6
146	12
147	4
148	23
149	9
150	16
151	35
152	59
153	7
154	3
155	0
156	9
157	1
158	0
159	5
160	1
161	6
162	5
163	9
164	6
165	2
166	1
170	14
171	1
172	0
173	8
174	8
175	1
176	9
177	35
178	69
179	9
180	3
181	0
189	1
190	5
191	34
192	4
193	3
194	1
201	5
202	106
203	11
204	11
205	82
206	11
207	16
208	2
209	1
219	8
220	1
223	0
234	0
235	34
236	4
237	5
238	0
247	93
248	13
249	1
251	6
252	0
265	66
266	9
267	4
268	0
280	248
281	42
282	14
283	2
