Mass Spectrum: Benzaldehyde 4-[3-pyridyl]-3-thiosemicarbazone
Formula: C13H12N4S
CAS: 70619-08-8
Molecular weight: 256
m/z	intensity
41	78
42	27
43	60
44	11
45	43
46	12
47	14
48	4
49	31
50	206
51	842
52	145
53	25
54	21
55	10
56	5
57	14
58	14
59	41
60	124
61	10
62	38
63	114
64	118
65	235
66	190
67	180
68	21
69	20
70	20
71	13
72	4
73	5
74	24
75	39
76	97
77	795
78	800
79	117
80	22
81	20
82	17
83	43
84	26
85	9
86	15
87	4
88	4
89	164
90	105
91	105
92	164
93	350
94	999
95	65
97	25
98	19
99	9
100	2
101	1
102	14
103	55
104	298
105	75
106	64
107	18
108	5
109	16
110	53
111	42
112	6
113	4
115	4
116	2
117	2
118	39
119	587
120	863
121	72
122	0
123	13
124	20
125	18
126	57
127	6
128	4
129	1
131	2
133	0
134	10
135	6
136	52
137	403
138	33
139	19
140	2
141	1
143	0
145	2
146	2
147	1
148	2
149	2
150	15
151	70
152	886
153	110
154	47
155	5
161	1
162	45
163	40
164	6
165	2
166	1
167	2
168	1
169	1
177	5
178	6
179	138
180	12
181	13
182	4
183	5
184	0
192	0
193	1
194	4
195	2
196	4
197	1
206	1
211	1
212	0
221	1
222	1
223	16
224	2
225	1
227	0
230	0
238	1
253	4
254	5
255	60
256	859
257	144
258	49
259	6
