Mass Spectrum: 6H-1,3-Oxazin-6-one, 4-hydroxy-2,5-bis(phenylmethyl)-
Formula: C18H15NO3
CAS: 70611-44-8
Molecular weight: 293
m/z	intensity
44	300
55	160
77	210
89	200
90	260
91	999
92	300
103	160
104	160
105	180
117	140
118	580
121	140
131	260
148	110
149	100
157	60
175	30
176	100
179	70
180	50
249	50
267	40
293	20
