Mass Spectrum: 2-acetylpyridine 4-[4-ethylphenyl]-3-thiosemicarbazone
Formula: C16H18N4S
CAS: 70618-26-7
Molecular weight: 298
m/z	intensity
41	129
42	30
43	25
44	10
45	38
47	37
48	12
49	145
50	80
51	420
52	230
53	118
54	36
55	21
56	11
57	97
58	10
59	25
60	15
61	4
62	12
63	62
64	38
65	119
66	37
67	49
68	7
69	19
70	10
71	12
72	3
73	4
74	10
75	19
76	39
77	491
78	999
79	826
80	112
81	9
82	8
83	14
84	95
86	65
87	1
88	14
89	61
90	43
91	146
92	70
93	102
94	69
95	9
96	11
97	14
98	1
99	9
101	7
102	23
103	115
104	297
105	329
106	988
107	89
108	23
109	31
110	6
111	17
112	3
113	1
114	0
115	2
116	18
117	21
118	34
119	111
120	335
121	605
122	61
123	22
124	33
125	6
126	2
127	2
128	23
129	6
130	11
131	77
132	21
134	908
135	307
136	75
137	44
138	41
139	149
140	13
141	9
142	1
143	2
144	3
145	15
146	18
147	24
148	79
149	49
150	192
151	85
152	141
153	17
154	7
155	0
159	0
160	1
161	16
162	20
163	40
164	77
165	12
166	5
167	1
168	2
169	0
173	0
175	0
176	3
177	19
178	105
179	20
180	7
181	2
182	0
186	0
188	32
190	14
191	1
192	1
193	1
194	5
195	1
196	0
204	2
205	0
207	0
208	1
209	1
210	0
218	13
219	50
220	538
221	72
222	28
223	3
224	4
225	6
226	1
235	6
236	1
237	13
238	2
239	2
248	1
251	0
252	11
253	3
254	1
265	36
266	9
267	1
269	28
270	5
271	0
280	3
281	17
283	283
284	49
285	17
286	2
297	0
298	645
299	132
300	40
301	6
