Mass Spectrum: 2-acetylpyridine 4-[4-isopropylphenyl]-3-thiosemicarbazone
Formula: C17H20N4S
CAS: 70618-27-8
Molecular weight: 312
m/z	intensity
41	318
42	105
43	390
44	18
45	22
46	4
47	11
48	4
49	37
50	81
51	368
52	241
53	118
54	38
55	16
56	7
57	71
58	11
59	26
60	15
61	3
62	11
63	60
64	32
65	137
66	38
67	52
68	5
69	11
70	5
71	6
72	3
73	4
74	9
75	22
76	41
77	339
78	999
79	759
80	109
81	11
82	6
83	5
84	24
85	3
86	16
87	3
88	5
89	35
90	33
91	349
92	110
93	65
94	70
95	7
96	8
97	6
98	2
99	5
101	11
102	39
103	115
104	346
105	284
106	755
107	97
108	19
109	23
110	5
111	17
112	3
113	2
114	2
115	38
116	26
117	59
118	73
119	139
120	681
121	204
122	21
123	23
124	38
125	5
126	4
127	0
128	53
129	9
130	19
131	14
132	13
133	7
134	818
135	598
136	94
137	21
138	36
139	163
140	14
141	12
142	9
143	10
144	11
145	38
146	13
147	1
148	34
149	57
150	243
151	104
152	146
153	18
154	7
155	0
157	0
158	2
159	11
160	10
161	35
162	45
163	9
164	5
165	4
166	2
167	0
168	1
169	0
175	3
176	20
177	46
178	148
179	18
180	8
181	1
182	0
186	0
190	7
191	3
192	14
193	4
194	3
195	1
196	2
197	0
200	0
202	32
203	4
205	0
207	1
208	4
209	1
210	1
218	8
219	1
220	1
222	1
223	0
225	1
232	13
233	48
234	524
235	83
236	30
237	5
238	3
239	5
240	0
250	0
251	16
252	17
253	3
254	2
255	5
256	1
262	0
263	1
265	0
267	1
269	19
270	3
271	1
279	38
280	14
281	3
282	1
283	12
284	2
294	3
295	15
296	3
297	286
298	53
299	17
300	2
308	2
310	2
312	734
313	156
314	46
315	8
