Mass Spectrum: 2-propionylpyridine 4-[4-Nitrophenyl]-3-thiosemicarbazone
Formula: C15H15N5O2S
CAS: 70618-78-9
Molecular weight: 329
m/z	intensity
41	111
42	30
43	41
44	30
45	112
46	19
47	13
48	5
49	38
50	186
51	392
52	313
53	129
54	47
55	16
56	35
57	12
58	17
59	27
60	33
61	12
62	35
63	171
64	150
65	241
66	43
67	27
68	18
69	32
70	16
71	31
72	1
73	9
74	26
75	99
76	197
77	98
78	999
79	901
80	150
81	11
82	15
83	11
84	29
85	7
86	16
87	3
88	9
89	27
90	95
91	117
92	370
93	98
94	25
95	12
96	27
97	7
98	3
99	2
100	0
101	0
102	9
103	22
104	278
105	610
106	133
107	30
108	88
109	12
110	6
111	14
112	5
113	3
114	0
115	2
116	18
117	157
118	196
119	57
120	461
121	49
122	50
123	24
124	28
125	21
126	3
127	8
129	2
130	11
131	43
132	45
133	336
134	202
135	170
136	19
137	19
138	109
139	10
140	3
141	12
142	12
143	0
144	1
145	5
146	5
147	6
148	106
149	39
150	38
151	14
152	52
153	11
154	4
155	1
156	14
157	0
158	7
159	2
160	2
161	1
162	11
163	10
164	64
165	28
166	49
167	6
168	3
169	1
170	0
173	2
174	3
175	2
176	1
177	2
178	3
179	7
180	17
181	38
182	4
183	3
189	1
190	4
191	17
192	38
193	6
194	3
195	3
196	2
197	3
204	2
205	17
206	3
207	2
208	0
219	7
220	1
221	1
222	1
223	0
224	0
225	2
226	1
232	0
234	1
235	0
237	1
241	0
243	0
249	2
250	4
251	107
252	14
253	9
254	48
255	8
256	3
262	2
265	0
266	0
268	2
269	1
270	3
282	2
283	2
284	4
294	4
295	3
296	6
297	1
298	0
300	838
301	152
302	54
303	7
311	1
312	0
313	0
328	0
329	207
330	40
331	14
332	2
