Mass Spectrum: 4-[2-Dimethylaminopropyl]thiosemicarbazide
Formula: C6H16N4S
CAS: 70619-53-3
Molecular weight: 176
m/z	intensity
42	234
43	45
44	90
45	36
46	34
47	9
48	24
49	10
50	1
51	3
52	1
53	2
54	14
55	25
56	93
57	30
58	41
59	32
60	30
61	3
62	1
64	38
65	1
66	3
67	1
68	5
69	4
70	110
71	44
72	999
73	52
74	8
75	26
76	1
77	2
81	1
82	1
83	2
84	10
85	91
86	41
87	3
88	1
96	3
97	1
98	4
99	2
100	6
101	1
102	2
110	0
111	1
112	0
115	1
116	1
126	1
128	2
129	0
132	2
142	1
145	6
160	1
162	0
176	19
177	2
178	1
