Mass Spectrum: methyl 4-pyridylketone 4-[2-pyridyl]-3-thiosemicarbazone
Formula: C13H13N5S
CAS: 70619-06-6
Molecular weight: 271
m/z	intensity
41	18
42	112
43	42
45	39
47	113
48	48
49	55
51	378
52	157
53	35
54	16
55	19
56	8
57	54
59	33
60	24
62	12
63	24
64	31
65	35
66	59
67	142
68	13
69	17
70	14
71	13
72	3
73	3
74	10
75	12
76	29
77	58
78	999
79	227
80	25
81	20
82	12
83	35
84	36
86	23
88	40
90	3
91	8
92	21
93	40
94	223
95	29
97	19
98	15
99	2
100	1
102	2
103	6
104	44
105	129
106	94
107	25
108	5
109	8
110	11
111	16
112	3
116	3
118	17
119	161
120	212
121	160
122	11
124	78
125	70
126	8
127	3
131	3
133	19
134	134
135	108
137	765
138	59
139	33
146	1
148	12
149	3
150	9
151	336
152	222
153	31
154	10
155	1
160	2
162	2
163	1
164	4
168	1
177	11
178	16
180	1
192	1
193	79
194	8
195	3
196	2
197	5
198	1
210	5
211	2
225	2
229	2
238	20
239	4
242	2
254	3
256	297
257	46
258	17
259	1
268	5
269	5
270	2
271	518
272	95
273	30
274	4
