Mass Spectrum: p-Methoxybenzaldehyde 4-[1-methyl-4-diethylaminobutyl]thiosemicarbazone
Formula: C18H30N4OS
CAS: 70619-24-8
Molecular weight: 350
m/z	intensity
41	144
42	158
43	19
44	187
45	7
46	5
47	5
49	8
50	14
51	45
52	2
53	21
56	195
58	257
60	60
61	5
63	42
64	37
65	25
67	32
69	141
70	51
71	11
72	143
74	120
77	153
78	23
79	18
80	10
82	27
84	509
86	999
87	52
89	24
90	6
91	70
92	53
93	11
94	7
95	9
96	12
99	533
100	30
101	11
103	29
105	25
106	5
107	60
108	25
109	21
110	26
112	178
113	15
114	11
115	14
116	5
117	1
118	19
119	21
120	14
121	19
122	8
124	30
126	26
128	43
129	11
130	1
131	10
134	263
135	108
136	51
137	6
139	276
140	54
142	80
143	69
144	7
145	126
146	8
147	5
149	32
150	12
151	10
152	2
153	0
154	6
155	2
157	31
158	4
159	1
160	0
161	2
162	1
163	0
165	3
166	3
168	1
169	16
170	1
171	9
172	0
173	4
175	5
176	6
177	0
178	0
180	2
182	119
184	31
186	12
188	3
192	2
193	52
194	1
195	7
199	10
201	76
202	8
203	3
205	0
207	1
210	2
214	2
215	28
216	45
217	6
218	2
220	0
229	0
232	0
234	0
236	1
238	2
243	4
244	12
246	0
248	0
256	0
262	1
264	22
265	0
274	2
276	13
278	39
280	1
287	0
289	1
315	0
317	9
318	0
321	10
322	0
335	5
348	1
350	228
351	26
352	2
