Mass Spectrum: p-Fluoroacetophenone 4-[1-Methyl-4-diethylaminobutyl]thiosemicarbazone
Formula: C18H29FN4S
CAS: 70619-27-1
Molecular weight: 352
m/z	intensity
41	91
42	136
43	44
44	77
45	5
47	42
48	12
52	2
53	6
54	12
55	37
56	94
57	42
58	140
60	49
61	4
62	3
63	4
64	0
65	4
67	20
68	15
69	89
70	44
71	42
72	97
74	79
75	41
76	5
77	11
78	4
79	0
80	4
81	5
82	22
83	6
84	193
85	9
86	999
87	48
88	11
89	1
90	4
91	0
92	3
93	1
94	5
95	159
96	33
97	2
98	12
99	477
100	31
101	33
102	6
103	10
104	2
105	1
106	0
107	5
109	35
110	38
111	23
112	102
113	12
114	7
115	13
116	6
117	0
118	7
120	2
121	49
122	108
123	4
124	30
125	1
126	20
128	30
129	10
130	3
131	4
133	0
134	3
135	1
136	131
137	51
138	48
139	188
140	47
142	49
143	45
144	41
145	65
146	6
147	4
149	4
151	22
152	5
153	4
154	6
155	2
157	17
158	2
159	0
161	4
162	0
164	0
165	3
166	4
168	5
169	8
171	8
172	1
173	2
174	1
176	2
178	8
180	3
181	0
182	116
183	12
184	6
185	0
186	14
187	1
188	0
195	54
196	10
197	5
199	9
201	47
202	5
203	2
204	0
212	2
214	4
215	31
216	23
217	4
218	1
224	1
234	0
238	0
239	5
240	1
244	0
246	10
247	1
248	0
257	1
264	4
266	23
267	4
268	1
276	0
278	15
280	46
281	6
282	2
289	0
291	0
303	0
308	0
317	0
319	6
320	0
321	0
323	14
324	2
325	0
337	17
338	2
339	0
351	0
352	83
353	23
354	5
355	1
