Mass Spectrum: Boron, butylchloro[2,2,2-trifluoro-N-(2,2,2-trifluoro-1-iminoethyl)acetamidato-N,O]-, (T-4)-
Formula: C8H10BClF6N2O
CAS: 70613-05-7
Molecular weight: 310
m/z	intensity
29	999
41	900
42	250
43	400
50	150
55	999
56	400
57	600
69	999
83	150
96	400
166	100
195	150
209	800
217	80
218	150
223	300
231	400
232	999
238	200
244	130
245	150
252	100
253	150
274	50
275	150
