Mass Spectrum: 2-acetylpyridine 4-[2,6-Dimethylphenyl]-3-thiosemicarbazone
Formula: C16H18N4S
CAS: 70618-24-5
Molecular weight: 298
m/z	intensity
41	100
42	143
43	39
44	11
45	97
46	6
47	14
48	4
49	38
50	101
51	505
52	316
53	190
54	48
55	29
56	15
57	105
58	11
59	35
60	36
61	7
62	15
63	76
64	42
65	187
66	50
67	58
68	10
69	23
70	10
71	15
72	4
73	5
74	10
75	22
76	47
77	614
78	999
79	962
80	145
81	14
82	8
83	14
84	24
85	9
86	13
87	3
88	5
89	43
90	31
91	308
92	116
93	82
94	85
95	10
96	4
97	14
98	4
99	6
101	9
102	41
103	185
104	348
105	456
106	812
107	91
108	24
109	12
110	10
111	16
112	4
113	2
114	1
115	3
116	34
117	61
118	154
119	303
120	479
121	882
122	92
123	11
124	29
125	9
126	3
127	2
128	17
129	9
130	113
131	93
132	35
133	8
134	885
135	366
136	66
137	43
138	32
139	121
140	12
141	35
143	10
144	13
145	147
146	80
147	27
148	25
149	34
150	81
151	72
152	67
153	12
154	4
155	0
158	2
159	2
160	5
161	15
162	31
163	96
164	126
165	22
166	7
167	2
168	1
175	1
176	8
177	53
178	568
179	114
180	33
181	7
182	1
183	0
186	5
188	6
189	0
194	1
195	0
204	3
205	0
207	0
208	0
209	1
218	3
220	197
221	23
222	11
223	3
224	3
225	1
237	4
238	0
239	0
248	8
249	4
250	0
262	0
263	0
265	56
266	19
267	3
268	1
269	5
270	0
280	2
281	3
283	234
284	41
285	13
286	1
295	2
296	4
298	543
299	116
300	35
301	6
