Mass Spectrum: 1-[2-Acetylpyridine]-4-[3-methylphenyl]-3-thiosemicarbazone
Formula: C15H16N4S
CAS: 70618-22-3
Molecular weight: 284
m/z	intensity
41	94
42	101
43	13
44	10
45	77
46	7
47	10
48	2
49	21
50	130
51	531
52	346
53	162
54	45
55	8
56	8
57	91
58	19
59	24
60	19
61	7
62	25
63	119
64	65
65	418
66	60
67	59
68	5
69	14
70	7
71	9
72	4
73	3
74	14
75	23
76	44
77	448
78	999
79	823
80	138
81	10
82	5
83	6
84	16
85	5
86	9
87	3
88	4
89	80
90	44
91	524
92	112
93	42
94	72
95	8
96	7
97	8
98	2
99	9
100	0
102	9
103	13
104	350
105	316
106	950
107	624
108	68
109	12
110	17
111	25
112	8
113	2
114	1
115	2
116	13
117	19
118	32
119	99
120	278
121	187
122	29
123	89
124	45
125	8
126	3
127	1
128	1
129	2
130	2
131	50
132	45
133	37
134	724
135	191
136	41
137	26
138	55
139	169
140	17
141	10
142	22
144	2
145	1
146	4
147	7
148	34
149	35
150	256
151	60
152	133
153	14
154	6
155	0
156	0
157	0
160	1
161	5
162	5
163	47
164	50
165	47
166	8
167	4
168	2
169	1
170	0
171	0
172	1
174	50
175	6
176	10
177	47
178	109
179	14
180	11
181	3
182	1
183	1
184	0
185	1
188	0
189	0
190	1
192	3
193	0
194	2
195	2
196	1
197	0
198	0
200	0
204	16
205	58
206	533
207	70
208	28
209	5
210	6
211	7
212	1
213	0
219	0
221	1
222	1
223	22
224	4
225	0
226	1
227	0
234	3
235	6
236	1
237	3
238	0
239	0
240	0
241	0
242	0
249	4
250	3
251	40
252	9
253	2
254	1
255	13
256	2
257	0
266	9
267	20
269	377
270	62
271	21
272	3
279	3
280	0
281	1
282	4
284	937
285	182
286	61
287	9
288	0
