Mass Spectrum: 4-[4-Pyridyl]-3-thiosemicarbazone 2-acetylpyridine
Formula: C13H13N5S
CAS: 70618-58-5
Molecular weight: 271
m/z	intensity
41	76
42	133
43	29
44	11
45	29
46	9
47	10
48	3
49	18
50	169
51	794
52	336
53	113
54	45
55	9
56	8
57	73
58	20
59	32
60	25
61	4
62	7
63	28
64	38
65	46
66	62
67	93
68	11
69	11
70	14
71	13
72	5
73	3
74	7
75	17
76	45
77	144
78	999
79	741
80	115
81	24
82	18
83	20
84	20
85	4
86	5
87	1
88	2
89	3
90	4
91	14
92	46
93	44
94	120
95	23
96	6
97	12
98	13
99	7
100	1
101	1
102	2
103	5
104	247
105	231
106	781
107	85
108	13
109	10
110	11
111	16
112	4
113	1
116	1
117	7
118	6
119	69
120	190
121	52
122	5
123	4
124	53
125	42
126	5
127	2
130	0
131	3
132	2
133	5
134	497
135	145
136	47
137	217
138	108
139	195
140	18
141	9
142	1
143	1
144	1
145	1
146	0
148	19
149	11
150	100
151	85
152	103
153	13
154	5
155	0
157	1
158	1
159	0
161	32
162	4
164	1
165	1
166	1
167	11
168	1
169	1
170	1
171	1
172	1
173	1
176	10
177	50
178	41
179	8
180	1
182	0
187	3
188	3
189	0
191	5
192	20
193	364
194	40
195	19
196	2
197	3
198	5
199	1
201	3
208	1
209	1
210	15
211	3
213	1
214	2
215	0
228	1
229	0
236	1
238	19
239	4
240	1
241	4
242	1
243	0
253	3
254	4
256	361
257	60
258	20
259	3
269	1
270	6
271	830
272	165
273	55
274	9
