Mass Spectrum: 4-fluorobenzaldehyde 4-[2-Pyridyl]-3-thiosemicarbazone
Formula: C13H11FN4S
CAS: 70618-94-9
Molecular weight: 274
m/z	intensity
41	58
42	3
43	33
45	39
46	8
47	11
48	5
49	30
50	73
51	343
52	132
53	19
54	8
55	8
57	67
59	39
60	34
62	31
63	37
64	27
65	12
66	78
67	262
68	21
69	40
70	22
71	9
72	1
73	2
74	12
75	152
76	22
78	999
79	189
80	21
81	26
82	15
83	80
84	32
85	6
86	14
87	3
88	7
89	12
90	11
91	8
92	18
93	15
94	543
95	225
96	43
97	17
98	16
99	0
100	5
102	8
103	3
105	98
107	107
108	67
109	39
110	35
111	38
112	4
113	1
115	2
117	3
119	9
120	711
121	23
122	125
124	151
125	64
126	9
127	4
129	3
130	4
131	0
133	0
134	2
136	9
137	926
138	165
139	46
140	4
141	2
145	1
147	1
149	2
151	265
152	179
153	64
154	20
155	6
156	1
157	0
164	1
166	0
167	0
172	0
173	0
175	0
177	0
179	24
180	8
181	4
182	1
184	0
185	1
186	0
187	0
189	0
195	1
196	7
197	0
199	1
201	7
202	0
212	2
213	2
214	2
236	0
241	5
242	0
244	0
245	1
256	0
258	0
271	2
272	8
273	3
274	446
275	81
276	26
277	3
