Mass Spectrum: 2-acetylpyridine 4-[2-Methylphenyl]-3-thiosemicarbazone
Formula: C15H16N4S
CAS: 70618-21-2
Molecular weight: 284
m/z	intensity
41	193
43	19
44	25
45	90
47	33
48	11
49	126
50	175
51	570
52	370
53	160
54	52
55	12
56	8
57	71
58	35
59	24
60	20
61	11
62	28
63	112
64	54
65	309
66	46
67	43
68	5
69	14
70	9
71	9
72	7
73	6
74	20
75	31
76	59
77	404
78	999
79	786
80	109
81	9
82	6
83	9
84	53
86	38
87	3
88	8
89	98
90	51
91	326
92	83
93	31
94	46
95	6
96	7
97	7
98	0
99	12
100	0
101	1
102	8
103	13
104	329
105	253
106	944
107	577
108	52
109	10
110	9
111	13
112	3
113	1
114	1
115	3
116	49
117	71
118	26
119	72
120	186
121	339
122	35
123	39
124	26
125	4
126	2
127	0
128	1
129	3
130	4
131	65
132	30
133	20
134	520
135	146
136	29
137	30
138	25
139	86
140	8
141	5
142	13
144	2
145	2
146	3
147	2
148	66
149	64
150	112
151	35
152	56
153	6
154	3
161	4
162	3
163	26
164	167
165	41
166	11
167	3
168	1
169	0
172	5
174	9
176	26
177	132
178	56
179	10
180	4
181	0
190	2
194	0
195	1
204	2
205	7
206	172
207	21
208	9
209	2
210	2
211	1
223	5
224	1
234	3
235	2
249	0
251	20
252	5
253	0
255	4
266	1
267	0
269	114
270	19
271	6
272	0
283	3
284	243
285	46
286	14
287	2
