Mass Spectrum: Benzene, 1-benzyloxy-4-(2-chlorophenyliminomethyl)-
Formula: C20H16ClNO
CAS: 70627-57-5
Molecular weight: 321
m/z	intensity
33	0
36	0
39	27
40	16
41	7
42	0
44	0
50	11
51	25
53	2
55	0
61	1
63	23
65	130
66	5
67	0
70	0
73	0
75	21
76	6
77	15
78	1
79	1
84	1
85	1
86	0
87	1
89	13
91	999
92	67
93	7
94	0
99	1
100	0
101	1
102	1
103	0
105	1
107	0
111	21
113	8
114	1
115	2
116	0
117	0
119	0
120	0
121	0
123	0
124	0
125	0
127	6
128	1
129	1
138	4
139	11
140	8
141	0
149	0
150	0
151	1
152	3
153	1
154	0
155	0
156	0
162	0
163	0
164	2
165	2
166	12
167	43
168	5
169	0
175	0
176	0
177	1
178	1
179	0
180	0
181	0
183	0
184	0
190	0
193	0
194	1
195	3
196	0
197	0
198	0
200	0
201	5
202	3
203	1
204	1
212	11
213	2
214	0
215	0
216	0
226	0
228	0
230	12
231	2
232	3
233	0
242	0
255	0
256	0
258	0
267	0
282	0
284	0
286	2
287	1
292	0
293	1
294	0
295	0
304	0
318	0
321	206
322	48
323	74
324	14
325	1
