Mass Spectrum: Imidazole-2-carboxylic acid, 4-methyl-
Formula: C5H6N2O2
CAS: 70631-93-5
Molecular weight: 126
m/z	intensity
41	149
42	145
43	60
44	781
45	83
46	35
49	4
50	29
51	109
52	178
53	119
54	682
55	184
56	22
57	21
58	2
59	2
60	10
61	7
62	7
63	15
64	15
65	18
66	19
67	70
68	20
69	16
70	11
71	9
73	9
74	8
75	5
76	10
77	76
78	201
79	36
80	65
81	761
82	999
83	112
84	12
85	7
93	2
94	2
95	13
96	6
97	10
98	4
99	2
107	45
108	108
109	31
110	4
125	14
126	169
127	27
128	6
