Mass Spectrum: Isoxazole, 4,5-dimethyl-
Formula: C5H7NO
CAS: 7064-40-6
Molecular weight: 97
m/z	intensity
27	287
29	150
39	163
40	229
41	161
42	160
43	999
52	73
53	52
54	653
55	327
56	26
57	26
66	9
67	9
68	75
69	32
70	64
82	117
83	8
96	43
97	564
98	43
99	8
