Mass Spectrum: Thiophene, 2-[(3-methylbutyl)thio]-
Formula: C9H14S2
CAS: 7065-60-3
Molecular weight: 186
m/z	intensity
12	0
13	0
14	3
15	19
16	0
24	0
25	0
26	11
27	224
28	27
29	202
30	5
32	8
33	1
34	2
35	0
36	0
37	5
38	20
39	280
40	27
41	320
42	34
43	999
44	38
45	215
46	13
47	16
48	0
49	2
50	11
51	17
52	5
53	36
54	4
55	123
56	14
57	38
58	42
59	6
60	5
61	2
62	0
63	1
64	3
65	5
66	2
67	3
68	4
69	77
70	44
71	562
72	38
73	19
74	3
75	0
76	6
77	4
78	2
79	1
80	1
81	14
82	38
83	11
84	23
85	37
86	3
87	9
88	5
89	4
90	2
91	1
92	0
93	0
94	0
95	1
96	2
97	24
98	2
99	2
100	0
101	1
102	4
103	2
104	0
105	0
108	0
109	2
110	3
111	1
112	0
113	0
114	7
115	120
116	971
117	73
118	84
119	5
120	2
121	0
122	0
123	0
124	0
125	13
126	1
127	2
128	0
129	49
130	6
131	4
132	0
133	0
134	0
135	0
136	0
137	0
138	0
139	0
140	0
141	1
142	2
143	5
144	0
145	0
154	0
155	0
156	0
157	0
158	0
171	1
172	0
173	0
185	1
186	386
187	47
188	36
189	3
190	0
191	0
