Mass Spectrum: (2-Bromo-1-propenyl)pentafluorosulfur
Formula: C3H4BrF5S
CAS: 70664-94-7
Molecular weight: 246
m/z	intensity
28	190
37	130
38	190
39	999
40	130
59	190
89	500
106	60
108	60
119	190
121	190
127	190
137	190
139	190
167	250
