Mass Spectrum: 2-Tridecenal, (E)-
Formula: C13H24O
CAS: 7069-41-2
Molecular weight: 196
m/z	intensity
25	13
26	9
27	393
28	182
29	654
30	4
31	10
32	13
35	3
36	9
37	7
39	268
40	52
41	999
42	182
43	944
44	25
45	6
46	4
47	3
50	7
51	22
52	12
53	105
54	165
55	774
56	215
57	658
58	34
59	10
61	8
65	22
66	41
67	241
68	167
69	418
70	824
71	164
72	11
73	21
74	1
75	7
77	22
78	13
79	93
80	76
81	217
82	215
83	598
84	241
85	53
86	9
88	2
90	7
91	16
92	4
93	63
94	46
95	101
96	160
97	213
98	149
99	10
100	11
101	2
103	3
106	3
107	32
108	31
109	44
110	58
111	89
112	53
113	6
114	13
116	9
120	3
121	68
122	16
123	20
124	23
125	16
126	1
127	6
128	9
131	3
132	4
133	1
135	31
136	14
137	4
139	5
140	15
141	6
144	2
148	2
149	17
150	4
152	31
153	6
154	3
167	4
169	5
178	9
185	2
191	7
193	2
196	8
