Mass Spectrum: 2-Cyclohexen-1-one, 4-hydroxy-3,5,5-trimethyl-4-(3-oxo-1-butenyl)-
Formula: C13H18O3
CAS: 7070-24-8
Molecular weight: 222
m/z	intensity
26	4
27	26
28	3
29	21
31	4
38	4
39	57
40	29
41	82
42	12
43	251
44	12
45	5
48	3
50	5
51	16
52	10
53	30
54	9
55	68
56	14
57	8
59	5
63	7
64	3
65	23
66	17
67	46
68	21
69	89
70	22
71	7
77	36
78	13
79	22
80	5
81	21
82	18
83	17
84	3
85	5
91	32
92	12
94	16
95	94
96	60
97	25
98	40
99	4
103	5
105	13
106	11
107	20
108	7
109	33
110	12
111	14
112	7
115	5
117	5
119	12
120	42
121	36
122	12
123	84
124	999
125	128
126	13
133	9
135	7
136	4
137	27
138	21
139	5
146	4
147	25
148	31
149	94
150	14
151	59
152	12
153	4
161	8
162	5
163	3
164	7
165	21
166	229
167	94
168	9
176	8
177	0
179	19
180	44
181	8
182	0
189	7
190	0
203	0
204	8
205	4
206	0
207	3
208	0
222	14
223	2
