Mass Spectrum: .alpha.-D-Xylofuranose, 3-C-[(acetyloxy)methyl]-1,2-O-(1-methylethylidene)-, 3-acetate 5-benzoate
Formula: C20H24O9
CAS: 70723-03-4
Molecular weight: 408
m/z	intensity
105	999
169	110
206	110
207	90
211	200
230	120
258	200
274	140
291	360
393	360
408	10
