Mass Spectrum: .alpha.-d-Xylofuranose, 3-C-[(acetyloxy)methyl]-, 1,2,3-triacetate 5-benzoate
Formula: C21H24O11
CAS: 70723-04-5
Molecular weight: 452
m/z	intensity
105	999
154	140
168	180
209	100
210	80
215	90
229	130
290	50
317	150
393	150
