Mass Spectrum: Benzoic acid, 2-bromo-.alpha.,.alpha.-dimethyl-
Formula: C9H11BrO
CAS: 7073-69-0
Molecular weight: 214
m/z	intensity
41	122
43	999
44	27
45	22
46	1
49	6
50	124
51	121
52	20
53	19
55	143
56	24
57	85
58	18
59	86
60	9
61	8
62	21
63	50
64	13
65	48
66	7
67	15
68	3
69	24
71	137
72	10
73	41
74	51
75	79
76	78
77	145
78	42
79	17
80	4
81	15
82	9
83	15
84	6
85	18
86	7
87	11
89	46
91	272
92	25
93	49
94	6
95	11
96	5
97	12
98	6
99	10
100	7
101	30
102	38
103	27
104	19
105	56
106	8
107	13
108	3
109	7
110	3
111	7
112	2
113	5
115	85
116	29
117	48
118	19
119	26
120	9
121	10
122	2
123	5
124	2
125	4
126	2
127	7
128	11
129	14
130	7
131	13
132	6
133	11
134	5
135	10
136	2
137	6
138	1
139	4
140	1
141	8
142	4
143	11
144	5
145	10
146	4
147	7
148	2
149	6
150	3
151	5
152	4
153	5
155	59
156	33
157	53
158	29
159	7
160	1
161	10
162	1
163	20
164	4
165	11
166	2
167	3
169	53
171	57
172	5
173	5
174	0
175	5
176	3
177	3
178	8
179	21
180	10
181	16
183	130
185	123
186	8
187	7
189	9
190	3
191	9
192	5
193	4
194	2
195	4
196	14
197	26
199	408
200	59
201	356
202	37
203	13
204	4
205	7
206	3
207	0
208	0
209	0
210	1
211	1
212	4
213	7
214	28
215	8
216	27
