Mass Spectrum: 2,5-Pyrrolidione, n-butyryloxy-
Formula: C8H11NO4
CAS: 70741-39-8
Molecular weight: 185
m/z	intensity
41	57
42	356
43	251
44	89
45	162
46	26
47	10
48	2
49	2
50	3
51	2
52	15
53	30
54	41
55	935
56	186
57	294
58	18
59	203
60	20
61	4
63	2
65	0
66	1
67	4
68	4
69	24
70	136
71	12
72	15
73	99
74	138
75	9
76	1
77	4
78	6
79	2
80	24
81	3
82	5
83	8
84	11
85	9
86	4
87	532
88	27
89	52
90	8
91	1
94	2
95	1
96	6
97	16
98	31
99	12
100	42
101	24
102	2
105	1
106	8
107	4
108	2
110	4
111	5
112	26
113	9
114	7
115	999
116	99
117	11
119	1
121	1
123	1
124	5
126	1
128	1
129	2
130	6
133	2
134	1
135	4
137	2
138	1
147	2
149	3
150	0
151	1
154	3
156	10
157	6
185	5
186	1
