Mass Spectrum: N-(Heptafluorobutyryl)glycine propyl ester
Formula: C9H10F7NO3
CAS: 70771-91-4
Molecular weight: 313
m/z	intensity
28	32
29	76
30	35
31	29
32	2
33	11
37	3
38	2
39	41
40	13
41	390
42	97
43	999
44	42
45	2
47	2
51	3
52	3
54	3
55	6
56	60
57	18
58	124
59	19
60	5
64	5
67	3
68	3
69	216
70	1
73	0
74	57
75	0
76	4
77	1
78	26
79	6
81	2
85	3
87	6
90	6
91	2
94	2
97	0
98	4
100	33
101	2
102	36
103	3
107	4
108	51
109	16
110	6
111	3
116	4
119	24
123	0
128	28
131	5
144	3
146	3
150	5
159	4
169	234
170	5
176	3
178	37
179	4
197	19
198	11
204	4
206	60
207	4
214	3
224	8
225	2
226	677
227	570
228	38
229	3
240	6
241	5
252	33
253	6
254	66
255	8
272	71
273	7
