Mass Spectrum: 2-Isopropyl-3-vinyloxirane
Formula: C7H12O
CAS: 70777-23-0
Molecular weight: 112
m/z	intensity
25	0
26	15
27	191
28	81
29	104
30	6
31	13
35	2
36	1
37	11
38	33
39	327
40	41
41	999
42	53
43	294
44	11
45	12
46	0
47	5
48	2
49	5
50	9
51	14
52	5
53	28
54	9
55	142
56	818
57	265
58	23
59	4
60	0
61	2
62	1
63	3
64	1
65	4
66	2
67	14
69	151
70	43
71	69
72	6
73	11
74	2
75	2
76	1
77	6
78	2
79	19
80	2
81	15
82	3
83	40
84	9
85	12
86	1
93	5
94	8
95	8
96	3
97	59
98	5
111	3
112	9
113	1
