Mass Spectrum: Phenylalanine, N-(heptafluorobutyryl)-, propyl ester
Formula: C16H16F7NO3
CAS: 70771-96-9
Molecular weight: 403
m/z	intensity
29	14
30	16
31	5
36	2
38	4
39	30
41	82
42	7
43	202
44	10
45	0
47	3
50	7
51	22
52	9
53	2
55	0
59	2
61	3
62	4
63	14
64	6
65	77
66	9
68	0
69	71
70	2
71	0
73	0
74	5
76	1
77	51
78	22
79	7
80	3
82	2
83	0
85	0
89	18
90	13
91	999
92	95
93	8
94	3
95	0
97	1
99	1
100	3
101	5
102	26
103	230
104	52
105	5
106	3
107	5
109	6
112	2
115	5
116	5
117	12
118	35
119	162
120	20
121	13
122	3
128	12
129	5
130	10
131	146
132	19
133	8
134	4
136	2
143	2
144	4
145	4
146	25
147	96
148	676
149	81
150	9
153	10
157	3
161	10
162	6
164	5
169	19
173	4
178	2
179	4
189	6
190	399
191	47
192	7
196	2
197	0
206	2
207	0
239	4
240	3
242	2
253	3
264	1
266	2
270	7
271	1
284	4
296	18
297	3
298	6
313	2
314	4
315	14
316	100
317	19
326	2
342	6
344	5
403	6
