Mass Spectrum: N-Benzoyl derivative of o-bromoaniline
Formula: C13H10BrNO
CAS: 70787-27-8
Molecular weight: 275
m/z	intensity
37	22
38	50
39	70
40	10
41	10
49	10
50	131
51	308
52	53
53	10
61	10
62	27
63	121
64	81
65	40
74	40
75	30
76	60
77	758
78	60
88	10
89	10
90	30
91	131
92	20
93	10
104	10
105	999
106	91
107	10
117	10
119	10
139	10
140	10
143	20
145	20
166	10
167	20
170	20
172	20
195	10
196	569
197	91
198	10
275	40
276	10
277	40
278	10
