Mass Spectrum: Cyano(ethoxycarbonyl)methoxyiminomethane
Formula: C6H8N2O3
CAS: 70791-59-2
Molecular weight: 156
m/z	intensity
25	297
26	547
27	320
28	999
29	163
30	252
31	88
32	44
41	30
42	121
43	59
44	352
45	15
51	30
52	411
53	86
54	30
55	30
56	86
57	15
58	172
59	30
73	74
80	74
82	151
83	74
110	530
111	115
112	19
125	296
126	35
156	145
157	18
158	4
