Mass Spectrum: cis-1,2-Bis(aminomethyl)cyclohexane
Formula: C8H18N2
CAS: 70795-45-8
Molecular weight: 142
m/z	intensity
30	999
41	160
43	300
54	160
55	90
56	420
67	220
68	120
79	50
81	170
82	140
95	50
96	150
113	260
142	20
