Mass Spectrum: trans-1,2-Bis(aminomethyl)cyclohexane
Formula: C8H18N2
CAS: 70795-46-9
Molecular weight: 142
m/z	intensity
30	999
41	350
43	170
54	100
55	70
56	350
67	200
68	100
81	170
82	100
96	160
113	450
142	20
