Mass Spectrum: Phenylacetic acid, 2,2-dimethylpropyl ester
Formula: C13H18O2
CAS: 70812-80-5
Molecular weight: 206
m/z	intensity
26	4
27	14
28	2
29	34
30	1
36	6
37	1
38	4
39	37
40	6
41	66
42	7
43	332
44	12
45	2
50	8
51	16
52	8
53	7
54	1
55	46
56	14
57	136
58	7
61	1
62	5
63	22
64	8
65	82
66	6
67	1
69	4
70	79
71	304
72	18
73	1
74	1
75	2
76	2
77	6
78	5
79	9
85	6
86	1
87	1
89	40
90	36
91	999
92	152
93	12
104	14
105	16
106	3
107	2
118	23
119	113
120	12
121	1
135	1
136	18
137	8
145	12
146	2
147	1
149	11
150	60
151	15
152	1
191	20
192	3
206	294
207	44
208	4
