Mass Spectrum: .alpha.-DL-Lyxo-hexopyranoside, hexyl 6-(acetylamino)-4,6-dideoxy-1-thio-, 3-acetate
Formula: C16H29NO5S
CAS: 70835-89-1
Molecular weight: 347
m/z	intensity
40	30
41	300
42	150
43	999
44	150
45	100
46	100
47	60
50	40
51	30
52	20
53	50
54	50
55	250
56	350
57	300
58	100
59	50
60	400
61	100
62	20
63	20
65	20
66	20
67	100
68	100
69	200
70	100
71	150
72	130
73	210
74	30
75	20
76	30
77	40
78	30
79	30
80	30
81	150
82	150
83	220
84	100
85	200
86	150
87	100
88	20
89	20
91	30
92	20
93	20
94	100
95	50
96	30
97	70
98	100
99	200
100	200
101	50
102	50
103	30
104	10
105	100
106	10
109	50
110	300
111	250
112	50
113	30
115	20
116	50
117	50
118	70
119	70
120	70
121	20
122	30
123	30
124	250
125	100
126	50
127	50
128	350
129	50
130	20
131	30
137	20
138	20
139	20
140	20
141	60
142	100
143	30
144	20
145	20
146	60
147	20
149	60
150	50
151	20
152	200
153	100
154	50
155	20
156	20
158	30
159	30
160	50
161	50
169	20
170	550
171	100
172	20
173	20
184	20
185	30
186	30
187	20
188	450
189	50
201	50
202	100
203	30
210	50
211	20
212	150
213	20
215	40
228	20
229	10
230	700
231	100
232	20
252	20
269	20
272	50
287	50
288	10
329	100
330	20
