Mass Spectrum: .alpha.-DL-Lyxo-hexopyranoside, hexyl 6-(acetylamino)-4,6-dideoxy-1-thio-, 2-acetate 3-benzoate
Formula: C23H33NO6S
CAS: 70835-92-6
Molecular weight: 451
m/z	intensity
40	10
41	110
42	50
43	310
44	80
45	30
47	20
50	30
51	30
52	10
53	10
54	10
55	80
56	110
57	30
58	20
60	130
61	20
63	10
65	10
67	30
68	30
69	30
71	10
72	60
73	40
74	20
76	30
77	180
78	30
79	20
80	30
81	80
82	80
83	60
84	50
85	30
86	10
87	20
88	20
89	10
91	10
94	50
95	30
97	30
98	50
99	30
100	60
104	10
105	999
106	110
107	20
108	10
109	20
110	340
111	100
112	30
122	80
123	10
124	160
125	100
126	30
127	10
128	60
129	10
140	20
141	20
142	80
152	180
153	50
154	30
160	20
170	180
171	30
182	10
183	10
184	30
186	20
187	20
210	30
211	10
212	90
213	20
214	20
215	30
228	30
229	10
257	90
269	150
270	80
271	20
274	150
275	60
286	30
292	110
293	20
306	80
307	30
314	20
334	700
335	160
336	30
391	100
392	30
393	10
