Mass Spectrum: .alpha.-DL-Lyxo-hexopyranoside, methyl 4,6-dideoxy-6-[[[1-[(phenylmethoxy)carbonyl]-2-pyrrolidinyl]carbonyl]amino]-1-thio-, 2,3-dibenzoate
Formula: C34H36N2O8S
CAS: 70835-98-2
Molecular weight: 632
m/z	intensity
40	10
41	110
42	60
43	70
44	130
45	60
46	10
47	90
48	40
49	10
50	100
51	180
52	50
53	20
54	10
55	50
56	50
57	20
61	10
62	10
63	30
64	30
65	70
66	20
67	40
68	70
69	70
70	140
71	20
73	20
74	60
75	30
76	50
77	440
78	110
79	30
80	20
81	40
82	20
83	20
84	10
85	10
89	20
90	20
91	780
92	110
93	10
94	40
104	20
105	999
106	110
107	60
108	50
110	40
114	20
122	410
123	60
125	20
126	20
127	20
140	30
141	30
160	320
161	60
184	10
204	140
205	40
232	20
233	20
250	30
251	20
281	10
297	10
313	10
327	10
341	30
355	10
388	60
389	40
459	10
463	20
464	20
497	20
510	40
511	20
512	10
585	90
586	40
