Mass Spectrum: .alpha.-dl-Lyxo-hexopyranoside, hexyl 4,6-dideoxy-6-[[[1-[(phenylmethoxy)carbonyl]-2-pyrrolidinyl]carbonyl]amino]-1-thio-, 3-acetate 2-benzoate
Formula: C34H44N2O8S
CAS: 70835-96-0
Molecular weight: 640
m/z	intensity
40	30
41	190
42	90
43	240
44	160
45	60
47	30
48	10
49	20
50	70
51	90
52	40
53	30
54	20
55	90
56	130
57	40
58	10
59	30
60	50
61	30
62	20
63	20
67	40
68	60
69	80
70	320
71	30
72	10
73	20
74	30
75	10
76	30
77	200
78	60
79	40
80	20
81	50
82	30
83	20
84	30
85	20
86	10
87	30
89	20
90	20
91	999
92	140
93	20
94	40
95	20
96	10
97	10
98	20
99	20
101	10
102	10
104	10
105	780
106	80
107	30
108	40
109	10
110	30
111	20
112	10
113	20
114	40
115	20
116	20
117	20
118	40
122	100
123	20
124	10
125	20
126	10
127	10
128	10
136	10
137	10
138	10
139	10
140	20
141	30
142	10
153	10
154	20
158	10
159	20
160	410
161	60
172	10
174	10
177	10
179	10
183	10
200	10
202	10
203	10
204	190
205	50
206	10
207	20
210	20
215	10
223	10
232	30
233	30
234	10
235	10
249	10
251	30
252	20
254	20
255	10
258	10
283	10
287	10
313	70
314	60
315	20
318	10
322	10
323	10
341	30
342	40
343	30
344	10
346	10
351	10
355	10
357	10
359	20
373	10
382	20
383	10
387	50
401	40
402	20
410	10
412	20
415	10
458	60
459	40
460	20
463	20
464	10
479	20
519	30
520	10
523	200
524	70
525	20
580	20
