Mass Spectrum: Carbonocyanidic amide, (trifluoromethyl)-
Formula: C3HF3N2O
CAS: 70856-23-4
Molecular weight: 138
m/z	intensity
27	999
31	90
42	40
44	90
45	60
47	480
50	100
54	480
64	130
69	960
92	830
111	930
118	40
138	120
