Mass Spectrum: 2-Cyanoethyl acrylate
Formula: C6H7NO2
CAS: 7085-85-0
Molecular weight: 125
m/z	intensity
30	14
31	14
36	1
37	6
38	7
39	6
40	5
41	7
42	19
43	49
44	14
45	84
46	2
50	10
51	105
52	443
53	206
54	33
55	18
56	5
57	1
59	5
64	1
65	2
66	4
67	2
68	37
69	21
70	5
72	2
73	1
78	3
79	89
80	999
81	70
82	11
83	3
84	2
86	2
94	6
95	2
96	67
97	37
98	439
99	23
100	2
106	2
107	31
108	5
110	32
111	3
124	20
125	15
126	1
