Mass Spectrum: N,N-Dibenzyldaunorubicin
Formula: C41H41NO10
CAS: 70878-51-2
Molecular weight: 707
m/z	intensity
41	48
42	22
43	221
44	10
45	28
47	10
48	4
49	45
50	17
51	54
52	12
53	12
54	6
55	27
56	6
57	35
58	18
61	5
62	5
63	29
64	9
65	144
66	11
67	15
68	8
69	14
70	4
71	7
74	5
75	10
76	10
77	44
78	13
79	15
80	3
81	7
82	8
83	9
84	31
85	4
86	21
87	4
88	9
89	37
91	999
92	99
93	9
94	6
95	24
96	3
97	12
99	3
101	6
102	8
103	10
104	26
105	34
106	98
107	9
111	4
112	6
113	7
115	15
116	5
117	17
118	20
119	7
120	18
121	16
122	3
125	3
126	4
127	5
128	7
129	6
130	14
131	9
132	73
133	16
134	4
135	8
137	3
138	3
139	11
140	5
141	4
142	3
143	4
144	10
145	10
146	14
147	7
149	3
150	5
151	6
152	12
153	6
154	15
157	4
158	5
160	369
161	41
162	34
163	9
164	10
165	15
166	4
167	4
168	4
170	3
172	20
173	9
174	9
175	4
176	8
177	3
178	4
179	3
181	14
182	3
184	3
187	5
188	3
189	10
192	4
193	3
194	5
195	4
196	23
197	24
198	7
200	7
201	3
202	6
203	4
205	4
209	3
210	11
211	3
216	4
217	47
218	10
219	3
220	7
221	5
222	16
223	20
224	6
230	5
233	4
234	10
235	4
236	13
237	7
238	5
239	3
241	4
248	5
249	5
250	3
251	130
252	104
253	19
254	3
255	3
261	3
262	3
263	16
264	6
265	6
266	7
267	3
268	4
269	3
270	14
271	3
273	3
276	4
277	3
278	3
281	7
284	14
285	6
290	4
291	23
292	8
293	3
294	10
295	5
296	4
297	4
301	12
302	8
303	3
306	7
307	6
308	5
309	77
310	32
311	13
312	3
313	9
316	3
317	4
319	15
320	8
321	17
322	12
323	10
324	3
326	3
327	4
329	3
336	3
337	94
338	26
339	25
340	5
343	5
344	16
345	4
348	3
355	17
356	5
362	43
363	12
364	4
380	6
382	8
398	104
399	23
400	4
