Mass Spectrum: N-(2-Pyrimidinyl)acetoacetamide
Formula: C8H9N3O2
CAS: 709-91-1
Molecular weight: 179
m/z	intensity
14	2
15	11
26	9
27	15
28	7
29	1
37	1
38	5
39	19
40	45
41	32
42	43
43	230
44	9
45	1
51	4
52	21
53	47
54	9
55	9
56	1
57	1
58	3
64	1
65	2
66	11
67	30
68	277
69	46
70	1
77	1
78	1
79	80
80	13
81	11
82	1
84	9
85	54
86	2
92	1
93	3
94	23
95	999
96	221
97	11
108	23
109	15
110	1
119	1
120	2
121	4
122	63
123	4
134	8
135	2
136	233
137	117
138	9
146	1
162	3
164	449
165	39
166	3
179	243
180	24
181	2
