Mass Spectrum: Carbamic acid, tricyclo[2.2.1.0(2,6)]hept-3-yl-, ethyl ester
Formula: C10H15NO2
CAS: 709-70-6
Molecular weight: 181
m/z	intensity
14	2
15	57
26	45
27	358
28	314
29	999
30	426
31	109
38	11
39	209
40	64
41	241
42	167
43	469
44	433
45	196
46	29
50	3
51	72
52	58
53	135
54	100
55	61
56	217
57	9
58	27
61	3
62	401
63	23
65	137
66	617
67	196
68	74
69	3
70	26
72	89
74	124
75	18
77	278
78	96
79	190
80	157
81	202
82	89
86	94
87	15
88	48
89	26
90	306
91	764
92	889
93	472
94	187
95	18
102	111
103	44
105	82
106	107
107	49
108	393
109	76
110	17
114	63
115	524
116	406
117	57
118	2
120	10
122	5
134	46
135	6
136	50
138	34
152	422
153	110
154	16
166	38
180	44
181	404
182	56
