Mass Spectrum: 3-Hexene, 2,5-dimethyl-3,4-bis(1-methylethyl)-
Formula: C14H28
CAS: 7090-88-2
Molecular weight: 196
m/z	intensity
26	2
27	68
28	2
29	41
30	1
37	0
38	0
39	37
40	5
41	185
42	9
43	153
44	5
45	0
50	1
51	8
52	3
53	30
54	4
55	153
56	9
57	56
58	2
63	1
64	0
65	12
66	3
67	47
68	4
69	162
70	12
71	4
75	0
76	0
77	21
78	3
79	23
80	4
81	28
82	5
83	999
84	60
85	4
89	0
91	16
92	2
93	10
94	3
95	29
96	4
97	78
98	80
99	6
102	0
103	0
104	0
105	5
106	1
107	5
108	1
109	18
110	3
111	29
112	2
114	0
115	1
116	0
117	0
119	1
120	0
121	2
122	1
123	6
124	0
125	4
126	0
129	0
135	0
136	0
137	7
138	1
139	0
151	0
152	1
153	23
154	2
165	0
178	0
182	0
193	0
196	44
197	7
198	0
