Mass Spectrum: Carbamic acid, methylnitroso-, 1-naphthalenyl ester
Formula: C12H10N2O3
CAS: 7090-25-7
Molecular weight: 230
m/z	intensity
39	34
43	20
50	23
51	21
56	23
57	28
62	31
63	72
65	40
74	21
75	23
76	13
77	14
86	16
87	24
88	27
89	83
113	30
114	50
115	999
116	141
117	9
126	12
127	45
128	7
143	722
144	262
145	27
173	4
229	5
230	50
231	6
