Mass Spectrum: 1,5-Dibromo-3-cyclohexylpentane
Formula: C11H20Br2
CAS: 70928-50-6
Molecular weight: 310
m/z	intensity
36	21
37	8
38	21
39	295
40	69
41	963
42	105
43	112
44	46
45	6
47	3
50	26
51	59
52	22
53	161
54	159
55	999
56	76
57	65
59	5
60	8
61	5
63	26
64	8
65	49
66	38
67	498
68	101
69	445
70	39
71	28
73	6
74	8
75	6
77	65
78	25
79	107
80	29
81	431
82	159
83	659
84	41
85	8
91	57
93	49
95	163
96	39
97	130
98	11
99	5
103	6
104	6
105	9
107	45
108	18
109	468
110	43
111	20
115	12
116	5
117	18
119	18
120	7
121	32
122	21
123	230
124	29
125	8
131	6
133	22
134	9
135	61
136	12
137	41
147	28
148	103
149	61
150	96
151	20
152	2
161	20
162	53
163	28
164	56
165	19
174	4
175	20
176	11
177	22
178	12
188	12
189	109
190	22
191	109
192	12
197	5
199	6
202	11
203	69
204	16
205	58
206	8
211	5
225	3
226	3
227	5
231	8
232	3
233	8
244	3
310	39
311	8
312	75
313	10
314	32
315	5
