Mass Spectrum: cis-1-Acetamido-2-(N-phenethyl-p-toluenesulfonamido)cyclohexane
Formula: C23H30N2O3S
CAS: 70924-85-5
Molecular weight: 414
m/z	intensity
60	100
81	150
91	650
96	450
98	260
105	999
110	140
112	380
140	260
151	70
155	160
167	40
200	300
259	520
281	300
323	300
