Mass Spectrum: cis-1-Acetamido-3-(p-toluenesulfonamido)cyclohexane
Formula: C15H22N2O3S
CAS: 70925-30-3
Molecular weight: 310
m/z	intensity
43	240
56	100
60	140
65	70
70	60
91	530
96	999
112	20
138	70
155	640
225	120
251	140
267	60
310	100
