Mass Spectrum: cis-1,4-Cyclohexanedicarboxamide
Formula: C8H14N2O2
CAS: 70925-16-5
Molecular weight: 170
m/z	intensity
26	21
27	259
28	67
29	130
30	62
31	4
34	1
36	2
37	3
38	16
39	288
40	65
41	557
42	80
43	134
44	999
45	42
46	54
47	0
49	1
50	21
51	62
52	37
53	206
54	226
55	866
56	255
57	31
58	9
59	315
60	22
61	1
62	2
63	10
64	4
65	38
66	35
67	279
68	85
69	108
70	28
71	24
72	696
73	76
74	6
75	2
76	3
77	83
78	22
79	142
80	92
81	591
82	232
83	367
84	48
85	567
86	215
87	11
88	0
89	1
90	0
91	23
92	18
93	11
94	19
95	14
96	71
97	42
98	228
99	236
100	14
101	0
102	1
103	2
104	2
105	7
106	14
107	20
108	152
109	57
110	57
111	90
112	61
113	6
114	1
115	2
116	3
117	0
118	0
119	4
120	4
121	4
122	4
123	1
124	38
125	821
126	622
127	719
128	68
129	5
131	2
132	0
133	2
134	2
135	4
136	112
137	11
138	2
139	1
140	1
141	1
142	1
143	0
145	0
147	3
148	0
149	5
150	0
151	2
152	10
153	575
154	93
155	9
169	6
170	33
171	8
172	1
