Mass Spectrum: trans-1,2-Cyclohexanedicarbonitrile
Formula: C8H10N2
CAS: 70925-19-8
Molecular weight: 134
m/z	intensity
41	700
51	110
52	140
53	140
54	470
55	200
56	910
66	180
67	999
68	120
79	400
80	590
81	470
94	750
106	310
107	470
133	190
134	120
