Mass Spectrum: cis-1,4-Bis(acetamidomethyl)cyclohexane
Formula: C12H22N2O2
CAS: 70924-83-3
Molecular weight: 226
m/z	intensity
30	999
43	560
54	50
55	70
56	100
60	450
67	110
72	300
73	450
79	70
93	60
95	220
96	50
108	180
112	150
124	40
154	740
155	300
166	20
167	100
211	60
226	70
