Mass Spectrum: cis-1-Acetamido-4-(N-phenethylbenzamido)cyclohexane
Formula: C23H28N2O2
CAS: 70924-95-7
Molecular weight: 364
m/z	intensity
60	40
77	210
81	80
91	100
96	50
98	50
105	999
110	350
140	30
151	260
231	210
259	20
273	380
364	10
