Mass Spectrum: 1-Bromo-3-(2-bromoethyl)heptane
Formula: C9H18Br2
CAS: 70928-47-1
Molecular weight: 284
m/z	intensity
36	38
37	25
38	50
39	335
40	75
41	890
42	32
43	380
44	20
45	7
50	30
51	39
52	21
53	140
54	56
55	999
56	120
57	404
58	20
65	30
66	22
67	203
68	60
69	440
70	72
71	98
72	6
77	20
78	3
79	27
80	40
81	110
82	50
83	187
84	19
85	21
91	15
93	25
94	7
95	80
96	9
97	232
98	30
99	4
106	9
107	40
108	15
109	54
110	7
119	20
121	42
122	6
123	28
125	61
126	8
133	9
134	3
135	47
136	7
137	40
147	14
148	83
149	58
150	84
151	39
155	10
161	17
162	50
163	40
164	51
165	27
175	7
176	3
177	20
178	6
179	19
205	25
206	10
207	24
208	8
241	7
243	13
245	7
284	1
286	2
288	1
