Mass Spectrum: trans-1,4-Bis(acetamidomethyl)cyclohexane
Formula: C12H22N2O2
CAS: 70924-84-4
Molecular weight: 226
m/z	intensity
30	999
43	480
55	70
56	90
60	360
67	100
72	280
73	400
79	80
93	70
95	210
108	200
112	130
124	20
154	790
155	120
167	100
226	20
