Mass Spectrum: 4-n-Butylthiane, S,S-dioxide
Formula: C9H18O2S
CAS: 70928-51-7
Molecular weight: 190
m/z	intensity
53	90
54	999
55	999
56	400
57	150
67	190
68	100
69	790
70	250
71	30
81	270
82	60
83	270
84	130
85	30
95	210
96	50
97	380
98	80
106	20
109	30
110	30
111	10
123	20
124	100
125	30
133	30
134	70
148	170
149	20
161	130
162	10
173	40
190	170
191	18
192	8
193	1
