Mass Spectrum: 4-Phenylthiane S,S-dioxide
Formula: C11H14O2S
CAS: 70928-54-0
Molecular weight: 210
m/z	intensity
39	120
40	10
41	70
42	10
43	10
44	10
50	30
51	90
52	30
53	20
54	30
58	100
59	30
62	10
63	60
64	20
65	90
66	20
67	60
68	30
75	10
76	20
77	80
78	70
79	20
81	10
83	10
89	40
90	20
91	400
92	30
102	30
103	115
104	30
105	70
106	10
115	230
116	100
117	830
118	999
119	110
127	10
128	60
129	240
130	80
131	200
132	20
143	110
144	270
145	380
146	50
193	30
210	830
211	107
212	43
213	5
