Mass Spectrum: 3-Methyl-5-methoxy-1-pentanol
Formula: C7H16O2
CAS: 70928-41-5
Molecular weight: 132
m/z	intensity
30	16
31	230
32	18
33	36
39	109
40	26
41	285
42	108
43	153
44	40
45	999
46	23
47	9
51	9
52	4
53	35
54	26
55	177
56	84
57	76
58	138
59	69
60	9
67	215
68	23
69	83
70	69
71	195
72	22
73	11
81	22
82	115
83	14
85	146
86	9
99	23
100	5
