Mass Spectrum: 1-Bromo-3-(2-bromoethyl)-nonane
Formula: C11H22Br2
CAS: 70928-49-3
Molecular weight: 312
m/z	intensity
38	52
39	359
40	80
41	999
42	173
43	748
44	35
45	29
49	4
50	22
51	41
52	21
53	150
54	95
55	784
56	158
57	458
58	32
59	4
61	5
62	8
63	10
64	4
65	31
66	38
67	293
68	102
69	638
70	99
71	238
72	18
77	32
78	9
79	50
80	98
81	211
82	50
83	355
84	51
85	121
86	12
91	19
92	4
93	32
94	12
95	142
96	31
97	149
98	29
99	19
105	4
106	6
107	50
108	11
109	43
110	15
111	40
112	8
113	5
119	19
120	5
121	32
122	5
123	40
124	7
125	30
126	4
133	11
134	4
135	33
136	6
137	39
138	3
147	19
148	72
149	58
150	74
151	41
152	4
153	19
154	5
161	19
162	49
163	58
164	45
165	40
166	4
173	9
174	6
175	18
176	14
177	50
178	9
179	43
180	5
182	4
183	29
184	5
186	4
188	8
190	5
191	14
193	10
203	4
204	4
205	18
206	5
207	19
215	6
216	11
217	6
218	9
219	5
233	15
234	5
235	17
241	10
243	19
245	8
258	5
312	3
314	6
316	3
