Mass Spectrum: 1-Hydroxy-5-methoxy-3-phenylpentane
Formula: C12H18O2
CAS: 70928-46-0
Molecular weight: 194
m/z	intensity
30	38
31	132
32	26
33	5
36	12
37	5
38	10
39	74
40	8
41	51
42	12
43	55
44	24
45	999
46	26
47	20
50	33
51	76
52	23
53	23
54	14
55	32
57	14
58	38
59	67
60	10
61	19
62	10
63	42
64	7
65	44
66	30
67	12
71	17
72	12
73	171
74	26
75	116
76	22
77	109
78	111
79	56
89	169
90	22
91	379
92	80
93	11
101	20
102	36
103	159
104	202
105	305
106	33
107	10
113	14
114	17
115	103
116	116
117	424
118	289
119	86
120	10
121	10
127	24
128	56
129	312
130	61
131	81
132	43
133	40
141	10
142	31
143	130
144	413
145	101
146	15
147	27
160	11
161	11
162	238
163	32
176	54
177	11
179	11
194	7
195	1
