Mass Spectrum: 1-Methoxy-3-(2-hydroxyethyl)nonane
Formula: C12H26O2
CAS: 70928-44-8
Molecular weight: 202
m/z	intensity
30	25
31	180
32	28
33	21
36	13
37	10
38	13
39	185
40	42
41	530
42	142
43	369
44	44
45	999
46	25
51	21
52	6
53	67
54	108
55	528
56	185
57	189
58	149
59	83
60	13
66	33
67	294
68	270
69	335
70	139
71	246
72	32
73	29
75	15
78	17
79	29
80	21
81	218
82	328
83	216
84	60
85	66
94	12
95	262
96	133
97	67
98	29
99	103
100	23
107	10
108	7
109	92
110	35
111	13
123	105
124	83
125	14
126	23
131	11
137	11
140	23
141	16
152	20
155	24
156	8
169	15
202	9
203	1
