Mass Spectrum: Nordiphenhydramine, N-acetyl
Formula: C18H21NO2
CAS: 70937-96-1
Molecular weight: 283
m/z	intensity
51	24
56	22
58	57
73	52
74	170
77	60
86	421
89	20
91	12
100	108
101	999
102	66
105	48
115	49
116	229
117	15
128	25
139	28
151	29
152	211
153	33
163	31
164	59
165	441
166	176
167	730
168	107
183	15
