Mass Spectrum: 1,3-Methano-1H-indene, octahydro-2-(phenylthio)-, (1.alpha.,2.beta.,3.alpha.,3a.beta.,7a.beta.)-
Formula: C16H20S
CAS: 70938-93-1
Molecular weight: 244
m/z	intensity
39	500
41	670
67	999
77	770
79	760
91	910
93	710
109	600
134	430
135	910
148	430
162	280
175	140
244	710
