Mass Spectrum: 3,8,9,10-Tetrathiatricyclo[4.2.1.1(2,5)]decane-4,7-dione, 5,6-diphenyl-1,2-bis(2-propenylthio)-, (1.alpha.,2.beta.,5.beta.,6.alpha.)-(.+/-.)-
Formula: C24H20O2S6
CAS: 70954-81-3
Molecular weight: 532
m/z	intensity
60	160
76	130
102	160
115	330
116	130
118	999
119	200
121	660
122	330
128	130
129	630
130	460
140	230
147	160
148	100
158	760
159	130
161	200
162	260
176	230
178	130
220	160
225	130
226	300
266	660
267	100
268	100
324	100
428	10
