Mass Spectrum: Benzo[b]1,4-dioxin, 2,3-dihydro-2-(1-benzylamino)ethyl-
Formula: C17H19NO2
CAS: 70959-27-2
Molecular weight: 269
m/z	intensity
33	9
35	3
36	7
37	2
39	71
40	23
41	26
42	75
44	999
46	162
47	2
48	0
50	25
51	37
52	106
53	32
54	21
55	26
56	47
57	12
58	4
60	0
62	7
63	21
64	18
65	53
66	5
67	5
69	7
70	19
74	3
75	5
76	14
77	47
78	16
79	38
81	46
82	4
83	2
84	1
89	11
91	465
92	19
93	3
94	2
98	0
103	1
104	3
105	37
106	10
107	13
109	24
110	4
117	1
119	4
120	6
121	27
122	4
126	2
132	11
134	359
136	67
137	2
143	1
146	5
148	6
149	1
162	10
163	2
179	43
180	2
269	3
