Mass Spectrum: Oxacyclododeca-6,9-dien-2-one, 7-methyl-, (Z,E)-
Formula: C12H18O2
CAS: 70968-72-8
Molecular weight: 194
m/z	intensity
26	12
27	279
28	131
29	207
30	6
31	18
38	12
39	379
40	66
41	506
42	81
43	93
44	6
45	12
50	17
51	71
52	48
53	254
54	63
55	371
56	45
57	31
58	7
59	8
60	15
63	19
64	6
65	82
66	59
67	255
68	160
69	41
70	18
71	39
73	29
74	8
75	6
77	247
78	58
79	490
80	129
81	329
82	52
83	39
84	58
85	33
87	6
91	321
92	187
93	999
94	309
95	122
96	19
97	24
98	8
99	20
102	6
103	13
104	10
105	247
106	116
107	468
108	219
109	53
110	82
111	46
112	10
117	20
118	14
119	185
120	73
121	199
122	40
123	18
124	13
126	22
127	19
131	23
132	8
133	37
134	58
135	174
136	38
137	14
138	18
140	20
145	18
146	16
147	18
148	9
149	37
150	8
151	17
152	48
153	10
161	18
163	16
164	213
165	49
166	21
176	7
179	10
194	425
195	50
196	4
