Mass Spectrum: n-Dodecanoylpyrrolidine
Formula: C16H31NO
CAS: 70974-45-7
Molecular weight: 253
m/z	intensity
14	1
15	8
18	4
27	55
28	49
29	114
30	45
31	1
39	35
40	10
41	206
42	68
43	295
44	20
51	1
52	1
53	13
55	257
56	93
57	49
58	4
59	5
65	1
67	12
68	18
69	36
70	205
71	135
72	86
73	4
79	3
80	1
81	6
82	2
83	11
84	14
85	100
86	5
95	3
96	4
98	126
99	16
100	3
109	1
110	2
113	999
114	74
115	5
124	2
126	200
127	43
128	3
138	2
140	29
141	7
152	1
154	14
155	7
156	1
168	23
169	6
182	13
183	4
196	9
197	2
210	10
211	3
224	7
225	1
238	2
252	6
253	51
254	10
