Mass Spectrum: Tricyclo[4.1.1.0(2,5)]octane
Formula: C8H12
CAS: 70970-60-4
Molecular weight: 108
m/z	intensity
39	670
41	370
54	880
66	300
67	790
77	320
79	999
80	620
91	160
93	320
99	30
107	20
108	4
