Mass Spectrum: Tetratetracontane
Formula: C44H90
CAS: 7098-22-8
Molecular weight: 618
m/z	intensity
26	1
27	16
29	80
30	2
31	0
37	0
38	0
39	12
41	159
42	45
43	666
44	20
45	0
48	0
50	0
51	0
52	0
53	6
54	20
55	253
56	105
57	999
58	47
59	0
60	0
61	0
62	0
63	0
65	1
66	2
67	29
68	31
69	181
70	111
71	702
72	46
73	0
74	0
75	0
76	0
77	1
78	0
79	3
80	3
81	23
82	50
83	177
84	65
85	459
86	33
87	0
91	1
92	0
93	1
94	0
95	12
96	32
97	183
98	47
99	174
100	15
101	0
102	0
103	0
104	0
105	0
106	0
107	1
108	0
109	5
110	14
111	79
112	30
113	120
114	10
115	0
116	0
117	0
119	0
120	0
121	0
122	1
123	4
124	11
125	46
126	24
127	108
128	11
129	0
131	0
133	0
134	0
135	0
136	0
137	1
138	8
139	25
140	21
141	78
142	10
143	0
144	0
147	0
149	0
150	0
151	0
152	5
153	17
154	18
155	54
156	7
157	0
161	0
162	0
163	0
165	0
166	3
167	12
168	13
169	52
170	5
171	0
174	0
175	0
176	0
177	0
178	0
179	0
180	4
181	6
182	12
183	33
184	5
185	0
187	0
188	0
189	0
190	0
191	0
193	0
194	3
195	7
196	12
197	33
198	6
199	0
201	0
207	0
208	4
209	4
210	11
211	29
212	4
213	0
215	0
222	2
223	3
224	7
225	20
226	3
227	0
235	0
236	1
237	2
238	6
239	19
240	3
241	0
249	0
250	2
251	2
252	7
253	20
254	3
255	0
263	0
264	1
265	2
266	6
267	13
268	2
269	0
278	1
279	1
280	6
281	12
282	2
283	0
291	0
292	1
293	2
294	4
295	10
296	2
297	0
306	0
307	1
308	5
309	12
310	3
311	0
320	0
321	0
322	4
323	10
324	2
325	0
334	0
335	0
336	4
337	7
338	2
339	0
348	1
349	1
350	3
351	7
352	2
353	0
362	0
363	0
364	3
365	6
366	2
367	0
376	0
377	0
378	3
379	7
380	2
381	0
390	0
391	0
392	2
393	4
394	2
395	0
404	0
405	0
406	2
407	6
408	1
409	0
418	0
419	0
420	2
421	6
422	1
423	0
432	0
433	0
434	2
435	4
436	2
437	0
446	0
447	0
448	2
449	4
450	2
451	0
461	0
462	2
463	4
464	1
465	0
476	2
477	5
478	1
479	0
490	2
491	5
492	1
493	0
504	2
505	4
506	1
507	0
518	2
519	4
520	1
521	0
532	1
533	4
534	1
535	0
536	0
546	1
547	4
548	2
549	0
560	1
561	3
562	1
563	0
574	0
575	2
576	1
577	0
578	0
588	0
589	2
590	0
591	0
602	0
603	0
604	0
617	0
618	10
619	5
620	1
621	0
