Mass Spectrum: 1-(1,2-Dimethyl-cyclopent-2-enyl)-ethanone
Formula: C9H14O
CAS: 70987-82-5
Molecular weight: 138
m/z	intensity
26	7
27	97
28	15
29	48
38	11
39	127
40	24
41	148
42	14
43	218
44	13
45	15
47	8
50	16
51	47
52	24
53	101
54	15
55	206
56	14
57	10
59	11
63	17
64	7
65	42
66	14
67	347
68	25
69	8
73	12
77	88
78	22
79	102
80	45
81	38
82	8
91	48
92	10
93	80
94	55
95	999
96	145
97	12
105	7
109	8
110	12
123	9
138	119
139	15
