Mass Spectrum: Dotetracontane
Formula: C42H86
CAS: 7098-20-6
Molecular weight: 590
m/z	intensity
26	0
27	14
29	55
30	0
34	0
37	0
38	0
39	7
40	8
41	117
42	33
43	553
44	17
51	0
53	2
54	15
55	178
56	98
57	999
58	34
59	0
65	0
66	1
67	20
68	23
69	151
70	84
71	645
72	27
73	0
77	0
78	0
79	1
80	1
81	12
82	41
83	124
84	52
85	409
86	26
87	0
91	0
94	1
95	6
96	29
97	133
98	38
99	152
100	10
105	0
108	0
109	4
110	14
111	69
112	31
113	127
114	11
115	0
119	0
122	0
123	3
124	11
125	51
126	30
127	112
128	10
129	0
132	0
133	0
136	0
137	3
138	12
139	32
140	29
141	93
142	11
143	0
145	0
150	0
151	1
152	12
153	26
154	30
155	89
156	9
157	0
161	0
165	0
166	9
167	24
168	34
169	80
170	13
171	0
175	0
180	10
181	17
182	32
183	82
184	14
185	0
189	0
193	0
194	9
195	16
196	31
197	78
198	11
199	1
207	0
208	6
209	17
210	32
211	65
212	12
213	0
217	0
221	0
222	7
223	15
224	30
225	62
226	10
227	0
236	5
237	9
238	27
239	56
240	10
241	0
245	0
250	5
251	7
252	21
253	47
254	11
255	1
262	0
263	0
264	3
265	7
266	24
267	49
268	7
269	1
278	3
279	4
280	18
281	37
282	8
283	1
292	1
293	2
294	15
295	34
296	8
297	0
306	2
307	2
308	14
309	31
310	8
311	0
318	0
320	3
321	3
322	11
323	28
324	4
325	1
334	1
335	2
336	11
337	21
338	4
339	1
348	1
349	2
350	8
351	21
352	4
353	0
362	1
363	1
364	8
365	18
366	5
367	0
376	0
377	1
378	9
379	19
380	4
381	1
390	0
391	1
392	6
393	19
394	3
395	0
396	0
404	0
405	1
406	6
407	16
408	3
409	0
418	0
419	0
420	6
421	11
422	3
423	0
433	0
434	6
435	13
436	4
437	0
446	0
448	5
449	14
450	4
451	0
461	0
462	5
463	12
464	3
465	0
476	4
477	11
478	3
479	1
490	4
491	12
492	4
493	0
504	2
505	11
506	4
507	1
518	3
519	12
520	4
521	0
532	3
533	8
534	4
535	1
536	0
546	1
547	7
548	4
549	0
560	1
561	4
562	2
563	0
575	0
589	0
590	26
591	12
592	2
593	0
