Mass Spectrum: 1-Propanol
Formula: C3H8O
CAS: 71-23-8
Molecular weight: 60
m/z	intensity
13	2
14	8
15	24
16	1
18	3
19	8
24	1
25	8
26	55
27	162
28	64
29	176
30	1
31	999
32	19
33	10
36	2
37	12
38	19
39	65
40	14
41	85
42	135
43	40
44	7
45	16
53	2
55	5
57	9
59	109
60	66
61	2
