Mass Spectrum: Medroxyprogesterone acetate
Formula: C24H34O4
CAS: 71-58-9
Molecular weight: 386
m/z	intensity
15	5
27	7
29	16
39	16
40	3
41	83
42	12
43	999
44	25
45	9
51	5
52	4
53	53
54	5
55	128
56	5
57	12
59	2
60	2
63	3
65	29
66	9
67	92
68	8
69	36
70	2
71	9
77	93
78	19
79	134
80	18
81	88
82	9
83	27
84	2
85	7
86	2
87	8
89	3
90	1
91	188
92	27
93	148
94	22
95	83
96	14
97	114
98	8
99	4
100	3
102	2
103	19
104	9
105	149
106	24
107	114
108	24
109	115
110	25
111	20
112	2
113	1
114	1
115	30
116	14
117	50
118	11
119	100
120	25
121	105
122	23
123	118
124	14
125	6
127	8
128	23
129	36
130	17
131	63
132	15
133	75
134	21
135	76
136	50
137	215
138	90
139	12
141	15
142	15
143	39
144	14
145	191
146	35
147	105
148	24
149	40
150	19
151	12
152	5
153	6
154	4
155	16
156	9
157	28
158	10
159	50
160	14
161	53
162	22
163	35
164	5
165	9
166	2
167	5
168	3
169	18
170	5
171	29
172	9
173	67
174	17
175	38
176	10
177	12
178	2
179	5
180	2
181	4
182	2
183	19
184	5
185	52
186	12
187	43
188	16
189	38
190	8
191	9
192	2
193	2
195	5
196	2
197	12
198	5
199	25
200	9
201	19
202	5
203	6
207	2
209	7
210	2
211	7
212	2
213	14
214	7
215	15
216	5
217	3
223	8
224	1
225	33
226	7
227	14
228	4
229	8
230	2
231	17
232	2
237	2
238	2
239	10
240	6
241	22
242	7
243	147
244	31
245	4
249	2
251	3
253	2
254	1
255	2
256	16
257	25
258	82
259	18
260	1
265	20
266	5
267	4
268	2
269	2
270	2
271	1
273	1
281	6
282	5
283	952
284	203
285	29
286	6
287	2
293	2
299	1
300	5
301	276
302	57
303	5
311	7
326	87
327	23
328	5
329	11
330	3
343	65
344	154
345	34
346	4
386	23
387	6
