Mass Spectrum: 2H-Pyran, tetrahydro-2-[(tetrahydro-2-furanyl)methoxy]-
Formula: C10H18O3
CAS: 710-14-5
Molecular weight: 186
m/z	intensity
14	0
15	10
16	0
19	1
25	0
26	7
27	89
28	45
29	192
30	7
31	49
32	1
33	0
37	1
38	3
39	84
40	16
41	315
42	66
43	509
44	26
45	7
46	0
47	1
49	0
50	2
51	4
52	2
53	20
54	20
55	157
56	54
57	177
58	9
59	3
60	1
61	3
64	0
65	4
66	0
67	180
68	16
69	13
70	54
71	374
72	17
73	3
74	0
77	0
79	0
81	3
82	10
84	443
85	999
86	53
87	4
88	0
95	0
96	1
97	0
98	1
99	1
101	88
102	4
103	4
110	0
111	0
112	0
113	0
114	0
115	12
116	0
117	4
118	0
128	3
129	0
131	0
137	0
141	0
154	0
155	2
156	6
157	13
158	1
168	0
185	0
186	0
187	0
