Mass Spectrum: 3-Phenoxylactamide
Formula: C9H11NO3
CAS: 710-12-3
Molecular weight: 181
m/z	intensity
14	1
15	8
16	2
17	23
18	4
26	2
27	16
28	18
29	8
30	9
31	4
37	2
38	7
39	42
40	13
41	3
42	8
43	67
44	90
45	50
46	7
47	3
50	12
51	56
52	6
53	4
54	1
55	12
57	2
58	33
59	2
60	1
61	2
62	3
63	10
64	5
65	63
66	56
67	4
68	1
69	1
70	14
71	8
74	64
75	6
76	5
77	231
78	69
79	77
80	5
81	1
86	1
87	12
88	247
89	9
90	2
91	32
92	6
93	22
94	999
95	86
96	5
97	1
103	1
105	6
106	1
107	182
108	85
109	7
118	9
119	30
120	11
121	2
134	1
135	51
136	13
137	8
138	1
146	2
147	17
148	2
149	1
151	3
152	2
162	3
163	205
164	34
165	3
179	1
181	198
182	25
183	2
