Mass Spectrum: 3.beta.-Acetoxy-5.alpha.-pregnane 20.beta.-bromide
Formula: C23H37BrO2
CAS: 71016-66-5
Molecular weight: 424
m/z	intensity
41	215
43	999
44	21
45	2
47	6
48	3
49	33
51	16
53	69
54	22
55	274
57	37
59	1
61	72
65	21
67	217
68	11
69	125
71	13
77	69
78	8
79	250
80	24
81	436
83	48
84	16
86	18
87	1
88	6
91	170
93	219
95	277
97	53
99	11
100	2
101	6
103	7
105	152
107	329
108	226
109	132
111	14
114	4
115	11
116	8
117	29
118	4
119	84
121	148
122	39
123	60
125	8
127	1
128	6
129	9
130	3
131	34
133	79
135	117
137	14
141	3
142	9
143	10
144	1
145	39
147	53
149	57
150	18
151	8
154	1
157	6
159	26
161	76
162	13
163	30
165	12
171	6
173	19
174	2
175	66
177	38
179	3
185	5
187	21
189	51
191	25
199	5
201	18
203	28
205	1
213	7
215	74
216	14
217	10
227	9
229	26
230	8
231	34
232	3
241	6
243	19
244	1
254	12
255	4
256	19
257	3
258	5
259	1
267	1
268	16
269	24
270	21
271	2
275	1
281	6
282	5
283	14
284	15
285	115
286	25
287	5
293	1
294	5
295	9
296	8
297	4
298	2
307	6
308	9
309	3
310	77
311	17
312	66
313	12
321	1
322	11
323	1
324	14
325	3
335	1
337	1
349	41
351	44
352	6
361	1
363	2
364	231
366	228
367	42
424	3
426	3
