Mass Spectrum: 3-Oxo-hexanedioic acid, 1-benzyl ester
Formula: C13H14O5
CAS: 71010-31-6
Molecular weight: 250
m/z	intensity
26	6
27	40
28	26
29	50
30	2
31	10
36	3
37	2
38	7
39	49
40	5
41	34
42	35
43	45
44	9
45	46
46	2
50	19
51	49
52	17
53	14
54	4
55	72
56	49
57	22
58	2
59	2
60	8
61	3
62	7
63	28
64	9
65	118
66	8
67	5
68	3
69	43
70	36
71	18
72	3
73	72
74	25
75	6
76	6
77	104
78	30
79	151
80	16
81	5
82	3
83	10
84	5
85	7
87	6
88	2
89	41
90	71
91	999
92	79
93	5
95	4
96	3
97	12
98	603
99	56
100	7
101	114
102	7
103	2
104	8
105	50
106	8
107	401
108	171
109	15
110	2
111	4
112	5
113	2
114	3
115	4
116	844
117	85
118	10
123	2
125	61
126	4
127	2
129	3
131	8
132	5
142	4
143	16
149	15
150	8
186	2
187	9
188	3
204	17
206	3
215	8
216	3
221	2
222	19
223	4
232	24
233	4
250	14
251	7
