Mass Spectrum: Thiobenzoyl-phosphoramidic acid diisopropyl ester
Formula: C13H20NO3PS
CAS: 71039-21-9
Molecular weight: 301
m/z	intensity
39	89
40	95
41	232
42	51
43	390
44	86
45	27
47	16
50	30
51	79
52	9
55	8
56	46
57	12
59	20
60	27
63	9
65	26
69	13
71	8
74	11
75	22
76	57
77	240
78	49
79	10
81	15
82	18
83	8
91	19
92	8
94	11
97	8
98	10
102	21
103	113
104	999
105	110
106	9
107	8
108	9
109	83
110	16
114	16
115	45
119	18
120	15
121	166
122	22
123	16
124	35
127	58
128	82
129	7
130	8
134	10
135	112
136	99
137	172
138	21
139	15
140	51
141	17
142	9
143	11
146	9
147	13
149	27
151	80
152	21
153	7
155	16
157	8
162	62
163	8
165	8
166	7
168	11
169	51
171	7
178	58
182	12
183	334
184	550
185	74
186	57
199	47
200	140
201	17
202	8
203	8
216	42
217	443
218	50
219	22
226	39
227	21
231	17
243	11
244	39
258	162
259	152
260	26
300	43
301	184
302	24
