Mass Spectrum: 6-Chloro-1-hexanol tosylate ester
Formula: C13H19ClO3S
CAS: 71042-21-2
Molecular weight: 290
m/z	intensity
41	542
42	114
43	110
44	11
45	9
47	2
48	2
49	71
50	27
51	77
52	23
53	64
54	292
55	391
56	156
57	27
58	2
59	0
61	4
62	21
63	116
64	29
65	453
67	254
68	23
69	217
70	13
71	8
73	0
74	4
75	19
76	21
77	75
78	21
79	55
80	17
81	92
82	588
83	176
84	14
85	2
86	5
87	3
88	4
89	107
90	97
91	999
92	216
93	27
94	2
95	1
97	0
99	8
100	1
101	1
103	2
104	0
105	8
107	99
108	69
109	9
110	0
111	2
113	0
115	1
117	19
118	408
119	117
120	132
121	36
122	2
123	0
124	0
125	1
135	5
137	2
139	16
140	2
141	0
145	0
155	380
156	37
157	32
158	2
159	0
172	171
173	428
174	42
175	22
176	1
185	2
226	3
228	1
289	4
290	6
291	2
292	2
293	0
