Mass Spectrum: 5-Keto-9-tetradecenamide
Formula: C14H25NO2
CAS: 71046-39-4
Molecular weight: 239
m/z	intensity
41	493
42	169
43	477
44	460
45	19
46	3
47	1
48	2
50	3
51	15
52	12
53	94
54	400
55	715
56	65
57	56
58	1
59	772
60	31
61	2
62	1
63	2
65	45
66	21
67	361
68	209
69	208
70	34
71	61
72	239
73	13
74	1
75	1
77	35
78	11
79	103
80	31
81	227
82	93
83	92
84	280
85	89
86	355
87	43
88	3
89	0
91	25
92	4
93	36
94	15
95	84
96	45
97	123
98	17
99	10
100	4
101	7
102	1
103	1
104	1
105	9
106	3
107	18
108	30
109	41
110	145
111	4
112	999
113	189
114	71
115	4
116	1
117	2
118	1
119	9
120	2
121	6
122	2
123	18
124	13
125	73
126	10
127	2
129	781
130	53
131	5
132	0
133	7
135	22
136	10
137	11
138	10
139	4
140	3
142	44
143	9
144	1
145	0
147	5
148	1
149	4
150	2
151	20
152	5
153	8
154	10
155	1
156	2
157	9
159	1
161	3
162	2
163	2
164	1
165	13
166	14
167	5
168	18
169	2
170	2
171	2
175	1
177	1
179	7
180	2
181	1
182	10
183	1
185	0
187	1
193	2
194	1
196	5
197	0
198	0
204	1
205	1
208	5
209	0
221	1
222	13
223	5
224	1
238	1
239	10
240	1
