Mass Spectrum: 2-n-Propylthiolane, S,S-dioxide
Formula: C7H14O2S
CAS: 71053-02-6
Molecular weight: 162
m/z	intensity
53	40
54	50
55	999
56	330
57	30
67	50
68	60
69	290
70	400
71	30
81	60
82	10
83	30
91	20
92	20
95	50
96	70
97	320
98	30
110	20
117	20
118	20
120	30
145	70
162	30
163	2
164	1
