Mass Spectrum: 3-n-Butylthiolane, S,S-dioxide
Formula: C8H16O2S
CAS: 71053-05-9
Molecular weight: 176
m/z	intensity
53	60
54	80
55	999
56	550
57	100
81	90
82	30
83	290
84	160
95	40
97	100
109	30
110	80
111	70
112	10
119	50
120	20
133	20
147	20
159	250
160	30
161	20
162	2
176	30
177	3
178	1
