Mass Spectrum: 2-n-Butylthiolane, S,S-dioxide
Formula: C8H16O2S
CAS: 71053-03-7
Molecular weight: 176
m/z	intensity
53	40
54	60
55	570
56	480
57	70
67	80
68	90
69	999
70	210
71	30
81	50
82	30
83	160
84	150
91	150
92	130
95	30
97	10
109	30
110	50
111	140
112	10
120	40
133	10
134	40
159	110
160	11
161	6
176	30
177	3
178	1
