Mass Spectrum: 2-n-Hexylthiolane, S,S-dioxide
Formula: C10H20O2S
CAS: 71053-04-8
Molecular weight: 204
m/z	intensity
53	80
54	130
55	999
56	560
57	320
67	200
68	200
69	970
70	60
71	130
81	120
82	120
83	930
84	270
92	40
95	80
96	50
97	370
98	90
109	40
110	20
111	80
112	90
120	80
133	60
134	60
138	40
140	20
147	10
169	40
187	240
188	30
204	40
205	5
206	2
