Mass Spectrum: 2-Methyl-4-methoxy-1-butanol
Formula: C6H14O2
CAS: 71052-94-3
Molecular weight: 118
m/z	intensity
30	31
31	200
32	20
33	41
38	10
39	93
40	23
41	260
42	58
43	91
44	38
45	999
46	26
47	8
51	8
53	22
54	8
55	109
56	326
57	89
58	502
59	43
67	15
68	18
69	20
70	15
71	83
72	27
76	7
85	77
86	7
87	8
88	42
103	14
