Mass Spectrum: 1-Methoxy-3-hydroxymethyloctane
Formula: C10H22O2
CAS: 71052-96-5
Molecular weight: 174
m/z	intensity
30	44
31	136
32	23
33	39
37	15
38	18
39	149
40	39
41	475
42	189
43	317
44	69
45	999
46	32
47	8
51	13
53	52
54	99
55	520
56	319
57	321
58	504
59	111
60	11
61	9
63	20
65	12
66	30
67	159
68	237
69	493
70	256
71	316
72	46
73	8
75	13
76	15
77	12
79	21
80	14
81	213
82	179
83	195
84	136
85	207
86	30
87	12
94	9
95	104
96	111
97	43
98	21
99	23
101	26
109	21
110	10
111	21
112	170
113	32
114	55
115	12
123	17
124	42
125	12
128	15
141	77
142	8
143	17
144	19
157	19
173	11
174	10
175	1
