Mass Spectrum: Tricyclo[4.1.0.0(2,4)]heptane, 5-(phenylthio)-, (1.alpha.,2.beta.,4.beta.,5.alpha.,6.alpha.)-
Formula: C13H14S
CAS: 71055-11-3
Molecular weight: 202
m/z	intensity
39	400
41	210
45	110
51	220
65	390
66	110
77	950
78	190
79	130
91	999
92	490
93	960
109	190
110	160
202	60
