Mass Spectrum: 1,4-Dibromo-2-cyclohexylbutane
Formula: C10H18Br2
CAS: 71052-99-8
Molecular weight: 296
m/z	intensity
37	19
38	34
39	331
40	69
41	780
42	72
43	84
45	18
46	8
47	9
48	4
49	6
50	33
51	72
52	44
53	235
54	201
55	999
56	63
57	52
58	9
61	4
62	9
63	29
64	8
65	68
66	59
67	425
68	102
69	390
70	29
71	9
73	5
74	12
75	11
76	8
77	98
78	38
79	132
80	48
81	386
82	126
83	887
84	60
86	68
88	9
89	12
90	9
91	218
92	27
93	75
94	43
95	601
96	90
97	41
98	11
102	8
103	27
104	46
105	24
106	9
107	50
108	18
109	129
110	24
111	8
115	31
116	12
117	52
118	14
119	29
120	4
121	45
122	7
123	78
124	10
125	5
126	4
127	8
128	12
129	18
130	12
131	65
132	9
133	25
134	63
135	40
136	78
137	269
138	31
139	5
147	15
148	13
149	19
150	10
151	8
161	42
162	9
163	40
175	22
176	8
177	19
183	10
185	11
187	5
197	19
198	5
199	19
200	6
203	9
205	9
206	8
210	8
211	19
212	7
213	18
214	6
215	6
216	25
217	125
218	37
219	119
220	13
296	2
298	2
300	1
