Mass Spectrum: 3,4,5,6,7,8-Hexahydro-2H-chromene
Formula: C9H14O
CAS: 7106-07-2
Molecular weight: 138
m/z	intensity
26	16
27	149
28	45
29	60
30	1
31	5
37	2
38	12
39	200
40	60
41	323
42	50
43	102
44	11
45	8
46	3
50	17
51	48
52	33
53	101
54	130
55	197
56	24
57	18
58	2
59	2
60	3
61	2
62	4
63	12
64	4
65	44
66	58
67	472
68	174
69	69
70	15
71	9
72	2
73	3
74	3
75	3
76	2
77	63
78	22
79	111
80	37
81	134
82	156
83	39
84	105
85	7
86	2
89	1
91	46
92	12
93	32
94	25
95	207
96	128
97	82
98	17
99	1
102	1
103	3
104	1
105	5
106	2
107	12
108	14
109	799
110	999
111	74
112	4
119	9
120	2
121	4
122	1
123	29
124	4
133	3
134	6
135	10
136	10
137	201
138	684
139	51
140	4
