Mass Spectrum: Phenylmethyl N-(4-hydroxyphenyl)carbamate
Formula: C14H13NO3
CAS: 7107-59-7
Molecular weight: 243
m/z	intensity
39	7
50	1
51	12
52	15
53	12
54	1
55	1
59	2
62	3
63	11
64	3
65	63
75	2
76	1
77	31
78	11
79	61
80	11
81	31
89	21
90	16
91	999
92	86
93	4
103	3
105	7
106	5
107	63
108	182
109	28
122	16
123	1
135	117
136	11
196	1
198	44
199	246
200	42
201	2
210	1
211	1
243	272
244	48
245	2
