Mass Spectrum: Benzenesulfonamide, 4-[N2-[bromo(nitro)methylidene]hydrazino]-
Formula: C7H7BrN4O4S
CAS: 71081-11-3
Molecular weight: 322
m/z	intensity
33	9
34	0
36	4
37	10
38	36
39	62
40	24
41	24
42	15
43	58
44	14
45	51
46	45
47	4
48	22
50	57
51	42
52	62
53	52
54	11
55	8
57	5
58	5
59	3
60	32
61	11
62	52
63	248
64	492
65	90
66	20
67	7
68	5
69	13
70	8
71	4
72	0
73	4
74	24
75	56
76	45
77	41
78	21
79	78
80	184
81	81
82	26
83	5
84	4
85	2
86	3
87	6
88	14
89	37
90	186
91	185
92	29
93	17
94	7
95	7
96	10
97	4
98	5
99	5
100	1
101	0
102	6
103	4
104	6
105	58
106	177
107	999
108	234
109	19
110	4
111	3
112	3
113	1
114	2
115	6
116	33
117	67
118	23
119	4
120	3
121	5
122	4
123	4
124	3
125	2
126	0
127	0
128	2
130	16
131	13
132	9
133	23
134	5
135	0
136	0
137	0
138	5
139	30
141	11
142	1
143	3
144	9
145	6
146	4
147	0
148	1
149	5
150	1
151	1
152	2
153	5
154	17
156	88
157	23
158	11
159	3
160	1
164	1
165	1
166	2
167	2
168	22
170	255
171	190
172	56
173	20
174	116
175	14
176	1
179	2
180	0
181	18
182	3
183	1
184	18
185	8
186	3
187	1
188	1
189	11
190	2
195	9
196	19
197	90
198	25
199	13
200	1
201	0
203	38
205	9
206	3
207	0
210	22
211	8
212	4
213	5
214	2
219	2
221	1
235	3
237	3
239	2
240	0
243	1
244	31
245	5
246	1
250	0
253	9
254	0
259	2
260	0
261	2
269	24
270	2
271	0
275	137
276	15
277	146
278	15
279	10
280	0
306	0
322	107
323	10
324	115
325	10
326	5
