Mass Spectrum: Propenone, 1-(2,3,4-trichloro-2-thienyl)-3-phenyl-
Formula: C13H7Cl3OS
CAS: 71105-31-2
Molecular weight: 316
m/z	intensity
34	1
35	16
36	56
37	20
38	49
39	116
40	43
41	12
42	7
43	36
44	23
45	19
47	12
49	15
50	195
51	557
52	87
53	48
54	3
55	9
56	7
57	11
60	4
61	15
62	51
63	129
64	13
65	16
68	9
69	19
70	7
71	50
72	5
73	26
74	79
75	105
76	140
77	999
78	74
79	86
80	35
81	44
82	8
83	11
84	10
85	12
86	16
87	29
88	4
89	17
91	102
93	26
94	6
96	9
97	9
98	14
99	9
101	41
102	337
103	998
104	91
105	50
106	25
107	23
108	53
109	126
110	57
111	16
112	4
113	12
114	7
115	104
116	14
117	48
118	15
119	7
120	4
121	6
123	13
124	7
125	1
126	14
127	66
128	16
129	18
130	40
131	875
132	98
133	12
134	3
135	1
137	11
138	19
139	48
141	157
142	23
143	134
144	40
145	67
146	11
147	7
150	83
151	17
152	46
153	8
154	7
155	2
157	5
159	5
165	2
171	4
173	20
175	5
176	3
178	2
179	8
181	4
182	33
183	25
184	5
185	28
186	17
187	24
188	13
189	10
190	2
191	1
202	4
204	1
207	1
209	6
210	5
211	7
212	6
213	107
214	10
215	116
216	11
217	64
218	289
219	57
220	137
221	16
222	22
223	2
224	2
228	1
239	3
241	3
245	16
246	7
247	5
248	4
251	2
252	42
253	40
254	35
255	32
256	7
257	6
262	1
264	4
275	2
279	1
280	6
281	177
282	35
283	141
284	21
285	31
286	3
287	7
288	33
289	8
290	34
291	7
292	11
299	1
315	795
316	715
317	926
318	744
319	378
320	241
321	77
322	37
323	2
