Mass Spectrum: Propenone, 3-(3,4,5-trichloro-2-thienyl)-1-phenyl-
Formula: C13H7Cl3OS
CAS: 71105-29-8
Molecular weight: 316
m/z	intensity
33	3
35	15
36	16
37	16
38	28
39	42
40	3
41	1
42	1
43	2
45	36
47	10
51	698
52	27
53	12
54	1
55	1
56	1
57	2
58	3
59	2
61	42
62	47
63	20
64	4
65	5
66	1
67	2
69	43
70	9
71	13
73	30
74	45
75	36
77	999
78	70
79	59
81	40
82	7
83	7
84	5
85	12
86	9
87	11
89	16
91	36
93	30
95	8
97	55
98	8
99	11
101	3
102	27
103	26
105	391
106	75
109	95
110	20
111	4
113	8
115	45
116	7
117	11
118	4
120	7
121	4
122	2
123	1
124	0
126	31
127	17
128	8
130	52
131	34
133	29
134	4
135	4
137	5
138	19
139	51
141	76
143	43
144	17
145	20
146	4
147	4
149	3
150	17
152	12
153	1
154	2
155	1
156	1
157	2
158	3
159	1
160	0
161	0
162	1
163	1
164	0
165	2
167	30
169	31
171	11
173	16
176	182
178	125
180	30
182	28
183	19
184	4
185	3
186	9
187	7
188	6
190	3
192	1
193	0
194	0
195	0
196	0
198	0
199	0
200	0
201	1
202	5
203	1
204	2
205	1
206	0
207	1
208	0
209	4
210	12
211	46
213	49
215	19
216	7
218	186
220	92
221	9
222	10
223	1
224	1
225	0
226	0
227	0
228	1
229	0
231	0
232	0
236	0
237	1
239	55
241	55
242	5
243	16
245	10
246	6
247	4
248	3
249	1
250	1
251	1
252	11
253	10
254	8
255	7
256	2
257	1
258	0
262	0
263	0
264	0
266	0
267	0
274	0
276	0
278	1
281	743
282	138
283	441
284	78
285	90
286	14
287	4
288	2
289	0
290	0
291	0
292	0
299	2
300	0
301	2
302	0
303	0
315	5
316	34
318	41
319	6
320	12
321	1
322	1
323	0
