Mass Spectrum: 3,6,9,12,15-Pentaoxabicyclo[15.3.1]heneicosa-1(21),17,19-trien-21-ol, 19-methyl-
Formula: C17H26O6
CAS: 71128-99-9
Molecular weight: 326
m/z	intensity
24	0
25	0
26	4
27	27
28	56
29	41
30	3
31	17
33	0
34	0
36	1
38	0
39	9
40	2
41	16
42	3
43	28
44	15
45	999
46	51
47	2
48	0
50	0
51	5
52	3
53	5
54	1
55	4
56	2
57	3
58	4
59	17
60	2
61	2
62	0
63	1
64	1
65	14
66	3
67	2
68	0
69	3
70	1
71	3
72	1
73	28
74	1
75	2
76	0
77	42
78	10
79	31
80	2
81	2
82	0
83	2
84	0
85	0
86	1
87	33
88	6
89	405
90	17
91	61
92	6
93	5
94	2
95	1
96	0
97	0
98	0
99	0
101	0
102	1
103	15
104	10
105	80
106	30
107	15
108	0
109	1
110	0
111	1
112	0
115	1
116	0
117	2
118	1
119	7
120	5
121	12
122	4
123	0
125	0
129	1
130	1
131	8
132	7
133	135
134	73
135	21
136	3
137	0
145	4
146	22
147	12
148	10
149	26
150	30
151	4
152	0
157	0
158	4
159	5
160	3
161	3
162	1
163	5
164	3
165	1
166	0
171	0
174	1
175	10
176	17
177	45
178	4
179	1
191	0
192	3
193	1
194	2
195	0
196	0
202	0
207	0
208	0
219	0
220	1
221	0
238	5
239	2
240	2
241	0
262	0
264	0
282	1
283	0
308	1
326	55
327	9
328	2
