Mass Spectrum: N,N-Dimethyl-3-benzyloxypropylamine
Formula: C12H19NO
CAS: 71126-69-7
Molecular weight: 193
m/z	intensity
30	26
39	23
41	20
42	78
43	22
44	49
45	9
50	6
51	17
52	5
56	14
57	17
58	999
59	44
63	7
65	32
70	23
71	11
72	13
77	24
78	9
79	13
84	20
85	26
86	6
87	81
88	5
89	6
91	100
92	11
102	101
103	7
105	7
107	6
108	7
130	5
192	1
193	8
194	2
