Mass Spectrum: N,N-Dimethyl-2-cyclohexyloxyethylamine
Formula: C10H21NO
CAS: 71126-60-8
Molecular weight: 171
m/z	intensity
30	15
39	17
41	39
42	63
43	21
44	27
45	26
53	6
54	8
55	29
56	20
57	26
58	999
59	40
67	8
70	8
71	28
72	57
73	59
82	8
83	6
88	7
171	29
172	6
