Mass Spectrum: 3-Cyclohexyloxypropylamine, N,N-dimethyl-
Formula: C11H23NO
CAS: 71126-67-5
Molecular weight: 185
m/z	intensity
30	18
31	5
39	21
41	61
42	55
43	20
44	42
45	18
53	6
54	8
55	31
56	12
57	19
58	999
59	43
67	7
70	13
71	12
72	14
82	6
83	12
84	16
85	8
86	14
87	67
88	6
102	176
103	14
184	1
185	12
186	1
