Mass Spectrum: N-Methyl-2-benzyloxyethylamine
Formula: C10H15NO
CAS: 71126-62-0
Molecular weight: 165
m/z	intensity
30	31
31	30
39	26
41	12
42	30
43	21
44	999
45	30
51	22
56	14
57	12
58	102
59	431
60	19
63	13
65	52
73	13
77	18
79	8
89	11
91	199
92	22
105	6
107	9
165	5
166	4
