Mass Spectrum: N,N-Dimethyl-2-tert-butoxyethylamine
Formula: C8H19NO
CAS: 71126-61-9
Molecular weight: 145
m/z	intensity
30	15
32	11
39	12
41	35
42	48
43	17
44	24
55	6
56	18
57	44
58	999
59	45
70	5
72	122
73	6
88	15
145	74
146	7
