Mass Spectrum: N,N-Dimethyl-2-butoxyethylamine
Formula: C8H19NO
CAS: 71126-58-4
Molecular weight: 145
m/z	intensity
30	19
31	6
39	9
41	31
42	65
43	23
44	27
45	11
55	5
56	25
57	25
58	999
59	39
70	5
71	5
72	40
73	11
88	3
102	2
116	0
130	0
144	0
145	42
146	3
