Mass Spectrum: N,N-Dimethyl-3-isopropoxypropylamine
Formula: C8H19NO
CAS: 71126-66-4
Molecular weight: 145
m/z	intensity
30	22
32	12
39	17
41	39
42	61
43	43
44	38
45	36
57	17
58	999
59	43
72	14
84	11
86	30
87	47
102	95
103	6
130	2
145	15
