Mass Spectrum: N-Phenyl-2-benzyloxyethylamine
Formula: C15H17NO
CAS: 71126-63-1
Molecular weight: 227
m/z	intensity
30	13
38	14
39	81
40	10
41	20
42	9
50	31
51	117
52	28
53	9
62	8
63	32
64	16
65	136
66	27
74	7
75	7
76	12
77	239
78	54
79	70
80	6
89	16
90	11
91	254
92	47
93	208
94	16
104	32
105	32
106	999
107	91
118	17
119	8
120	17
121	9
151	6
227	186
228	35
