Mass Spectrum: N,N-Dimethyl-3-butoxypropylamine
Formula: C9H21NO
CAS: 71126-65-3
Molecular weight: 159
m/z	intensity
30	13
39	11
41	31
42	45
43	15
44	31
57	24
58	999
59	41
87	31
102	57
103	4
116	3
130	1
144	1
158	1
159	39
160	4
