Mass Spectrum: N,N-Dimethyl-2-isopropoxyethylamine
Formula: C7H17NO
CAS: 71126-59-5
Molecular weight: 131
m/z	intensity
30	26
39	16
41	32
42	84
43	42
44	36
45	66
56	18
57	20
58	999
59	41
70	7
71	7
72	78
73	70
74	4
86	8
131	17
132	1
