Mass Spectrum: 1-(cis-4-Hydroxytetrahydro-2-furanyl)-5-fluorouracil
Formula: C8H9FN2O4
CAS: 71145-52-3
Molecular weight: 216
m/z	intensity
38	3
39	68
40	30
41	136
42	31
43	299
44	109
45	34
54	37
55	44
56	14
57	88
58	68
59	126
60	44
68	68
69	241
70	48
71	82
85	44
86	65
87	999
100	27
113	27
114	122
129	7
130	150
131	126
132	10
133	3
144	14
145	3
157	37
158	20
172	41
198	27
215	3
216	173
217	51
218	3
