Mass Spectrum: 4-Hydroxy-3-methylpent-2-enoic acid, methyl ester
Formula: C7H12O3
CAS: 71143-52-7
Molecular weight: 144
m/z	intensity
26	12
27	135
28	26
29	117
30	7
31	36
33	25
34	1
35	0
36	1
37	9
38	32
39	267
40	89
41	412
42	62
43	743
44	27
45	198
46	4
49	3
50	10
51	17
52	7
53	41
54	7
55	93
56	13
57	59
58	5
59	155
60	5
61	8
62	2
63	4
64	1
65	20
66	28
67	136
68	61
69	845
70	49
71	31
72	7
73	9
74	2
75	14
76	1
77	3
78	1
79	4
80	1
81	10
82	3
83	54
84	20
85	119
86	7
87	11
88	2
89	1
91	3
92	1
93	2
94	13
95	95
96	27
97	137
98	13
99	17
100	2
101	999
102	50
103	6
104	0
105	3
106	0
107	0
108	0
109	1
110	3
111	76
112	36
113	150
114	10
115	27
116	2
117	1
122	0
124	1
125	47
126	111
127	12
128	1
129	59
130	4
131	1
143	2
144	1
145	3
146	0
