Mass Spectrum: 2,4(1H,3H)-Pyrimidinedione, 5-fluoro-1-(tetrahydro-3-hydroxy-2-furanyl)-, trans-
Formula: C8H9FN2O4
CAS: 71145-47-6
Molecular weight: 216
m/z	intensity
39	82
40	68
41	219
42	41
43	116
44	116
45	89
57	429
58	226
59	187
60	119
68	7
69	215
70	48
71	73
86	119
87	999
88	169
100	21
113	7
114	112
115	11
116	46
117	48
130	158
131	146
156	14
157	9
158	14
159	82
170	7
198	41
199	5
216	231
217	50
