Mass Spectrum: 5-Cyanopent-1-ene-3-one
Formula: C6H7NO
CAS: 71159-57-4
Molecular weight: 109
m/z	intensity
27	269
29	10
39	15
40	6
41	15
42	16
43	6
52	14
53	20
54	151
55	999
56	42
57	16
66	21
67	15
68	6
80	6
81	10
82	61
83	7
91	13
109	92
110	7
