Mass Spectrum: Spiro[oxirane-2,1'(1'H)-indene], 2',3',3'a,4',7',7'a-hexahydro-5'-acetyl-2',3',3'a,7'-tetrahydroxy-4-carboxy-, 3,4-lactone
Formula: C14H16O7
CAS: 7117-36-4
Molecular weight: 296
m/z	intensity
25	1
26	9
27	68
28	11
29	94
30	11
31	57
35	1
36	9
37	19
38	47
39	228
40	28
41	92
42	41
43	999
44	47
45	20
46	1
47	4
48	1
49	6
50	30
51	65
52	26
53	103
54	24
55	115
56	17
57	25
58	13
59	5
60	14
61	7
62	14
63	43
64	11
65	55
66	52
67	140
68	40
69	98
70	17
71	47
72	14
73	11
74	11
75	15
76	10
77	126
78	32
79	66
80	13
81	53
82	40
83	110
84	30
85	34
86	7
87	10
88	5
89	32
90	18
91	87
92	14
93	34
94	48
95	196
96	37
97	54
98	18
99	41
100	7
101	9
102	16
103	40
104	14
105	57
106	15
107	49
108	17
109	37
110	137
111	158
112	172
113	24
114	6
115	41
116	16
117	39
118	19
119	42
120	13
121	57
122	33
123	63
124	60
125	40
126	11
127	29
128	14
129	16
130	7
131	27
132	16
133	52
134	19
135	130
136	22
137	49
138	112
139	110
140	109
141	42
142	7
143	10
144	10
145	58
146	21
147	45
148	19
149	45
150	40
151	87
152	18
153	9
154	5
155	8
156	10
157	11
158	47
159	27
160	19
161	78
162	32
163	135
164	30
165	24
166	12
167	12
168	13
169	5
170	2
171	14
172	10
173	94
174	61
175	84
176	33
177	73
178	29
179	41
180	36
181	9
182	1
183	1
184	1
185	14
186	12
187	39
188	31
189	281
190	114
191	92
192	28
193	17
194	3
195	3
196	4
197	2
198	26
199	6
200	5
201	50
202	16
203	49
204	33
205	44
206	20
207	30
208	6
209	9
210	0
211	2
212	2
213	3
214	12
215	13
216	16
217	30
218	17
219	37
220	10
221	13
222	2
223	2
224	2
225	1
226	2
227	2
228	2
229	1
230	3
231	13
232	30
233	8
234	9
235	14
236	3
237	0
238	2
239	2
241	2
242	2
243	0
244	0
245	5
246	2
247	1
248	2
249	6
250	3
251	2
252	2
253	16
254	0
255	2
259	2
260	13
261	4
262	1
263	4
264	0
265	0
266	2
267	4
268	0
277	2
278	24
279	13
280	1
281	0
296	170
297	28
298	3
299	2
