Mass Spectrum: Valeric acid, 2-cyano-2-ethyl-3-methyl-, ethyl ester
Formula: C11H19NO2
CAS: 71172-92-4
Molecular weight: 197
m/z	intensity
41	487
42	71
43	97
44	46
45	41
46	2
47	1
49	2
50	5
51	21
52	57
53	130
54	55
55	243
56	65
57	285
58	17
59	27
60	2
61	0
62	0
63	3
64	12
65	29
66	52
67	233
68	173
69	255
70	33
71	9
72	10
73	12
74	2
75	0
76	1
77	13
78	5
79	19
80	88
81	42
82	79
83	31
84	42
85	117
86	11
87	9
88	1
89	0
91	5
92	0
93	11
94	60
95	78
96	999
97	16
98	353
99	24
100	4
101	4
102	2
104	3
105	2
106	2
107	8
108	17
109	12
110	174
112	256
113	453
114	31
115	11
116	2
117	1
119	1
120	0
121	1
122	14
123	22
124	543
125	362
126	412
127	195
128	0
129	29
130	1
131	0
132	0
133	1
134	0
135	0
136	2
138	68
140	88
141	525
142	54
143	8
144	1
145	1
146	1
147	0
148	0
149	0
150	0
151	1
152	33
153	5
154	14
155	3
156	4
157	1
164	0
166	2
167	5
168	26
169	24
170	34
171	4
172	0
179	0
180	0
181	1
182	5
183	3
184	0
185	0
186	2
187	0
188	0
192	0
193	0
194	1
195	2
196	22
197	389
198	38
199	4
