Mass Spectrum: Methane, dichloronitro-
Formula: CHCl2NO2
CAS: 7119-89-3
Molecular weight: 129
m/z	intensity
36	12
37	20
38	8
42	12
43	36
44	5
46	52
47	109
48	248
49	33
50	79
51	4
61	8
63	4
82	12
83	999
84	12
85	633
86	5
87	104
