Mass Spectrum: 1-Nitropyrazole
Formula: C3H3N3O2
CAS: 7119-95-1
Molecular weight: 113
m/z	intensity
38	100
39	420
40	90
41	100
46	120
52	20
53	40
57	20
66	60
67	140
68	10
83	880
84	40
113	999
114	60
