Mass Spectrum: 5-(Chloromethyl)-N-phenyl-1,3,4-thiadiazol-2-amine
Formula: C9H8ClN3S
CAS: 7119-00-8
Molecular weight: 225
m/z	intensity
33	10
34	1
35	77
36	20
37	37
38	117
39	180
40	84
41	25
42	5
43	3
44	15
45	98
46	35
47	9
48	11
49	212
50	313
51	623
52	66
53	19
54	22
55	25
56	8
57	61
58	464
59	247
60	26
61	35
62	25
63	135
64	111
65	295
66	18
67	6
68	11
69	18
70	13
71	7
72	13
73	9
74	43
75	75
76	173
77	999
78	144
79	16
80	4
81	3
82	6
83	4
84	5
87	1
88	4
89	6
90	48
91	176
92	95
93	121
94	11
95	43
96	53
97	12
98	3
99	2
101	1
102	7
103	50
104	173
105	31
106	17
107	4
108	19
109	111
110	10
111	4
112	8
113	3
116	4
117	52
118	202
119	17
120	2
121	2
122	32
123	107
124	10
125	3
128	42
129	9
130	9
131	2
133	6
134	7
135	209
136	313
137	35
138	14
149	69
150	686
151	65
152	33
153	1
160	2
161	18
162	3
180	1
189	5
190	413
191	56
192	21
224	158
225	459
226	111
227	169
228	21
229	6
