Mass Spectrum: 1-Ethyl-3-methyl-2,4,5-trioxoimidazolidine
Formula: C6H8N2O3
CAS: 71194-99-5
Molecular weight: 156
m/z	intensity
40	40
41	40
42	80
43	220
44	80
54	10
55	20
56	999
57	170
58	350
59	20
70	210
71	170
72	110
85	20
99	10
100	80
113	80
128	40
129	40
141	60
156	620
