Mass Spectrum: Butanoic acid, 4-hydroximino-4-(2-thienyl)-, methyl ester
Formula: C9H11NO3S
CAS: 712-85-6
Molecular weight: 213
m/z	intensity
33	76
37	7
38	74
39	799
41	106
42	82
43	146
44	108
45	750
47	37
50	37
51	81
52	132
53	61
54	106
55	505
57	177
58	310
59	265
60	25
61	8
63	57
64	83
65	186
66	37
69	141
70	162
71	81
72	8
75	26
77	145
78	16
79	129
80	47
82	162
84	431
85	81
86	29
87	66
88	13
91	28
95	15
96	66
97	278
98	87
99	74
100	148
101	4
109	999
110	486
111	237
112	27
121	59
123	653
124	77
125	99
127	31
135	19
136	698
137	82
138	62
140	4
151	6
152	99
154	781
156	19
164	355
166	90
167	99
168	15
180	68
181	174
182	247
183	43
196	447
197	41
198	8
199	15
213	346
214	34
