Mass Spectrum: 1-Benzoxirene, 1a-[(phenylsulfonyl)methyl] perhydro
Formula: C13H16O3S
CAS: 71208-82-7
Molecular weight: 252
m/z	intensity
26	3
27	96
28	13
29	66
31	11
36	5
38	6
39	145
40	32
41	390
42	41
43	125
44	15
45	14
50	33
51	157
52	23
53	82
54	24
55	485
56	24
57	38
58	2
59	3
62	5
63	8
64	3
65	45
66	25
67	444
68	36
69	103
70	7
71	6
74	7
75	8
76	12
77	463
78	83
79	51
80	15
81	81
82	23
83	320
84	26
85	2
89	4
91	124
92	26
93	438
94	62
95	26
96	10
97	20
99	2
105	3
109	10
110	14
111	999
112	78
113	5
115	5
117	3
125	59
126	10
127	6
128	2
129	4
130	6
141	17
142	4
143	28
144	3
223	6
234	3
252	5
