Mass Spectrum: 3-Methyl-1-(phenylthio)butan-2-one
Formula: C11H14OS
CAS: 71221-49-3
Molecular weight: 194
m/z	intensity
41	730
42	310
43	990
44	444
45	940
47	130
50	180
51	670
55	100
57	120
58	220
63	100
65	530
66	120
69	330
71	999
72	150
77	580
78	160
79	220
85	160
91	110
109	450
110	440
123	900
124	710
125	140
194	470
195	73
196	27
