Mass Spectrum: 4,4-Dimethyl-5-methylene-2-benzylimino-1,3-thiazolidine
Formula: C13H16N2S
CAS: 71224-24-3
Molecular weight: 232
m/z	intensity
38	39
39	264
40	99
41	283
42	129
43	69
44	144
45	76
49	8
50	69
51	139
52	60
53	63
54	18
55	51
56	46
57	39
58	74
59	60
60	23
61	16
62	19
63	64
64	28
65	249
66	46
67	99
68	179
69	19
70	14
71	16
72	16
73	8
74	15
75	12
76	34
77	79
78	37
79	56
80	10
81	11
82	15
83	91
84	19
85	199
86	19
87	12
89	40
90	27
91	999
92	104
93	12
94	19
97	12
99	64
100	94
101	14
102	10
103	18
104	38
105	26
106	79
107	15
108	11
111	17
116	8
117	8
118	6
121	16
125	29
126	11
127	12
131	15
132	16
133	15
134	21
148	19
149	25
150	46
215	15
217	479
218	79
219	29
232	64
233	7
