Mass Spectrum: Trifluoroacetic acid, 2-tetrahydrofurylmethyl ester
Formula: C7H9F3O3
CAS: 71239-15-1
Molecular weight: 198
m/z	intensity
30	27
31	368
32	20
36	13
37	17
38	27
39	215
40	50
41	509
42	196
43	876
44	150
45	50
50	106
51	183
52	5
53	20
54	7
55	30
56	7
57	46
61	18
69	327
70	70
71	999
72	48
95	17
96	2
97	13
