Mass Spectrum: 2H-1,7-Benzodioxonin, 3,4,5,6-tetrahydro-
Formula: C11H14O2
CAS: 7124-99-4
Molecular weight: 178
m/z	intensity
40	70
41	999
42	330
43	350
50	80
51	140
52	380
53	150
54	20
55	130
63	100
64	100
65	100
66	50
67	110
68	90
69	870
70	90
71	80
77	30
80	60
81	50
82	10
85	50
86	30
87	30
91	30
92	30
93	40
110	999
111	120
112	10
121	220
122	30
178	220
179	20
