Mass Spectrum: Timonacic, 2TMS derivative
Formula: C10H23NO2SSi2
CAS: 71240-84-1
Molecular weight: 277
m/z	intensity
43	105
45	244
59	96
73	999
74	86
75	113
147	79
160	678
161	79
162	62
