Mass Spectrum: Bis(trimethylsilyl)histidine
Formula: C12H25N3O2Si2
CAS: 71241-10-6
Molecular weight: 299
m/z	intensity
20	10
26	24
27	47
28	4
29	27
30	23
39	31
40	8
42	35
43	43
44	17
45	147
46	14
47	71
50	7
51	10
52	23
53	13
54	60
55	48
56	44
57	37
58	21
59	39
60	14
61	28
65	7
66	16
68	8
69	19
70	9
72	24
73	540
74	86
75	336
76	38
77	29
78	8
79	18
80	13
81	139
82	999
83	178
84	24
85	9
86	9
87	17
91	14
93	45
94	7
95	9
98	9
100	19
102	6
103	17
105	9
108	7
109	33
110	485
111	40
112	8
120	31
121	7
126	7
130	50
131	23
137	8
146	41
151	7
153	82
154	466
155	75
156	22
166	36
167	12
181	8
182	380
183	62
184	41
185	9
194	18
195	9
212	18
218	34
219	10
238	10
254	15
256	11
284	26
285	7
