Mass Spectrum: Benzocyclododecene, 5,6,7,8,9,10,11,12,13,14-decahydro-
Formula: C16H24
CAS: 7125-10-2
Molecular weight: 216
m/z	intensity
23	1
25	0
26	1
27	56
28	15
29	54
32	1
35	1
36	0
37	0
38	1
39	70
40	0
41	157
42	13
43	24
45	1
46	1
47	0
49	0
50	4
51	23
52	9
53	31
54	21
55	133
56	13
57	16
58	7
59	3
60	4
62	3
63	17
64	10
65	44
66	3
67	29
68	31
69	109
70	8
72	0
73	1
74	2
75	5
76	4
77	76
78	62
79	45
80	8
81	33
82	15
83	25
84	3
85	3
87	3
89	17
90	8
91	329
92	169
93	25
94	7
95	11
96	9
97	4
98	0
100	2
102	10
103	79
104	728
105	999
106	270
107	24
108	0
109	5
110	5
111	8
112	3
114	3
115	109
116	66
117	266
118	438
119	97
120	32
121	4
122	5
123	1
124	6
125	2
127	10
128	41
129	55
130	33
131	416
132	84
133	28
134	8
135	3
136	1
138	2
139	0
140	3
141	10
142	4
143	12
144	8
145	219
146	42
147	15
148	6
151	3
152	0
153	1
154	2
155	1
156	1
157	4
158	1
159	46
160	14
161	4
163	2
164	1
166	1
169	0
171	1
173	25
174	8
175	5
176	0
178	2
179	0
181	0
185	2
187	12
188	13
189	1
191	2
192	1
194	0
196	1
198	0
200	1
201	14
202	4
203	1
204	0
207	0
208	0
210	0
214	9
215	4
216	432
217	73
218	7
222	2
