Mass Spectrum: 1H-Pyrrole-3-carbonitrile
Formula: C5H4N2
CAS: 7126-38-7
Molecular weight: 92
m/z	intensity
25	1
26	5
27	13
28	90
29	10
30	1
31	8
36	7
37	63
38	97
39	32
40	20
41	161
42	8
46	23
47	0
48	1
49	4
50	8
51	16
52	35
53	5
54	2
62	14
63	35
64	118
65	213
66	46
67	7
90	2
91	13
92	999
93	66
94	2
