Mass Spectrum: Benzamide, 2-methyl-N-(3-chloro-4-methylphenyl)-
Formula: C15H14ClNO
CAS: 71267-56-6
Molecular weight: 259
m/z	intensity
34	0
35	0
36	1
37	1
38	5
39	48
40	9
41	17
43	6
44	1
45	3
46	0
50	15
51	45
52	19
53	6
54	1
55	4
56	1
57	4
58	0
59	1
61	2
62	10
63	39
64	14
65	145
66	8
67	1
68	0
69	2
70	2
71	2
72	0
73	3
74	4
75	10
76	11
77	85
78	27
79	7
80	1
81	1
82	1
83	2
84	2
85	1
86	2
87	3
88	2
89	53
90	37
91	395
92	27
93	2
94	0
95	2
97	2
98	1
99	3
100	0
101	1
102	5
103	3
104	26
105	10
106	2
107	1
108	0
109	0
111	4
112	8
113	11
114	3
115	4
116	3
117	2
118	15
119	999
120	89
121	6
122	0
123	0
124	0
125	3
126	1
127	1
128	1
129	1
130	0
131	0
132	3
133	0
134	0
135	0
136	1
137	1
138	1
139	1
140	18
141	11
142	7
143	4
144	0
146	0
147	0
149	0
150	0
151	0
152	2
153	0
154	0
155	0
157	0
158	0
161	0
163	0
164	0
165	1
166	1
167	0
168	0
171	5
172	0
173	0
174	0
176	0
177	0
178	1
179	1
180	3
181	1
182	0
183	0
187	0
189	0
190	0
191	0
192	1
193	1
194	4
195	1
196	0
198	0
199	0
200	0
201	0
203	0
204	0
205	0
206	0
207	3
208	2
209	0
210	0
212	0
213	0
214	1
215	0
216	1
217	0
222	1
223	1
224	2
225	1
226	0
227	0
228	1
229	0
230	0
231	0
232	0
233	0
236	0
237	0
238	0
239	0
240	0
242	13
243	2
244	4
245	2
247	0
250	0
251	0
255	5
256	1
257	1
258	3
259	235
260	41
261	78
262	13
263	1
264	0
