Mass Spectrum: 3-Acetamido-3-methyldecane
Formula: C13H27NO
CAS: 71275-20-2
Molecular weight: 213
m/z	intensity
26	10
27	83
28	54
29	140
30	58
39	58
40	18
41	320
42	174
43	420
44	110
53	25
54	15
55	465
56	105
57	160
58	50
59	40
60	674
61	15
67	40
68	15
69	225
70	580
71	152
72	970
73	47
81	15
82	18
83	170
84	58
85	10
86	15
97	18
98	22
99	10
100	10
114	999
115	80
124	15
125	100
126	22
142	884
143	87
154	76
156	70
170	15
184	348
185	40
198	10
213	8
214	5
