Mass Spectrum: N-Ethyl-3-methyl-3-nonanamine
Formula: C12H27N
CAS: 71275-03-1
Molecular weight: 185
m/z	intensity
26	8
27	47
28	78
29	85
30	62
39	23
41	110
42	116
43	90
44	124
46	20
53	8
55	132
56	40
57	54
58	40
69	35
70	66
71	23
72	80
83	8
84	27
85	35
86	20
98	43
99	12
100	999
101	70
112	8
128	12
154	30
156	730
157	78
170	78
171	10
184	5
185	1
