Mass Spectrum: Heptane, 3-acetamido-3-ethyl-
Formula: C11H23NO
CAS: 71275-24-6
Molecular weight: 185
m/z	intensity
26	10
27	63
28	74
29	94
30	106
39	45
40	10
41	165
42	70
43	258
44	57
53	25
54	24
55	227
56	124
57	43
58	92
60	303
61	10
67	30
68	15
69	116
70	56
71	40
72	40
83	17
84	182
85	46
86	485
87	32
97	103
98	30
100	14
112	18
114	999
115	90
126	64
127	10
128	273
129	28
142	10
156	305
157	34
185	7
186	6
