Mass Spectrum: Pyrazol-5(4H)-one, 4-(4-chlorobenzylideno)-3-methyl-1-phenyl-
Formula: C17H13ClN2O
CAS: 71289-10-6
Molecular weight: 296
m/z	intensity
33	3
35	12
37	16
38	55
39	153
41	46
42	33
43	3
44	1
45	1
49	12
50	173
51	700
52	45
53	14
54	3
57	0
58	0
59	0
60	4
61	11
62	34
63	127
64	85
65	38
66	5
67	2
68	0
69	0
72	2
73	12
74	87
75	125
77	999
78	57
79	4
82	0
84	2
85	6
86	10
87	21
88	8
89	12
91	65
92	9
93	4
95	0
96	0
97	5
98	10
99	22
101	59
102	34
103	3
105	10
106	22
107	1
109	1
110	4
111	14
112	5
113	10
114	3
115	4
116	2
118	0
119	1
122	0
123	2
125	12
126	45
127	98
128	128
129	12
130	2
131	3
132	0
133	0
135	0
136	35
138	12
139	4
140	1
141	2
142	0
143	0
148	2
149	0
150	2
152	0
155	1
156	1
158	0
160	1
161	3
162	15
163	16
164	6
165	4
166	0
168	0
176	1
177	0
182	0
183	1
185	52
186	4
187	0
190	2
192	0
203	0
219	0
267	0
294	0
295	3
296	13
297	4
298	6
299	0
