Mass Spectrum: Cyclohexanamine, N-(1-methylethyl)-N-nitroso-
Formula: C9H18N2O
CAS: 71302-63-1
Molecular weight: 170
m/z	intensity
26	13
27	214
28	92
29	154
30	76
31	12
37	2
38	6
39	184
40	33
41	577
42	186
43	999
44	148
45	72
46	3
47	60
50	4
51	15
52	11
53	71
54	132
55	857
56	192
57	69
58	112
59	28
60	6
61	1
63	3
64	1
65	13
66	9
67	162
68	62
69	81
70	184
71	39
72	8
73	8
74	2
75	1
76	1
77	16
78	3
79	33
80	12
81	152
82	150
83	635
84	60
85	82
86	6
87	4
88	43
89	248
90	10
91	3
92	0
93	2
94	7
95	3
96	64
97	15
98	216
99	24
100	3
101	230
102	18
103	2
104	1
105	2
107	0
108	2
109	1
110	53
111	37
112	7
113	1
114	0
115	9
116	0
117	0
119	1
120	1
121	0
122	0
123	0
124	28
125	14
126	24
127	3
128	20
129	3
130	0
131	6
132	0
133	4
138	0
139	2
140	16
141	11
142	1
143	24
144	1
152	0
153	55
154	6
155	1
169	1
170	372
171	55
172	5
