Mass Spectrum: Azuleno[5,6-c]furan-1(3H)-one, 8-ethoxy-4,4a,5,6,7,7a,8,9-octahydro-4-hydroxy-6,6,8-trimethyl-, [4S-(4.alpha.,4a.alpha.,7a.alpha.,8.alpha.)]-
Formula: C17H26O4
CAS: 71305-65-2
Molecular weight: 294
m/z	intensity
41	360
43	999
55	220
69	140
81	160
95	200
109	220
122	230
151	150
169	140
206	150
233	100
248	410
261	30
279	30
294	70
