Mass Spectrum: Undecanoic acid, 11-mercapto-
Formula: C11H22O2S
CAS: 71310-21-9
Molecular weight: 218
m/z	intensity
26	10
27	65
28	34
29	81
30	3
32	5
33	12
34	8
35	16
39	182
40	37
41	411
42	131
43	118
45	294
46	43
47	279
48	16
49	15
52	10
53	101
54	79
55	714
56	108
57	72
58	22
59	85
60	384
61	147
62	11
63	10
65	28
67	229
68	178
69	505
70	89
71	64
73	387
74	39
75	14
76	6
77	24
78	8
79	75
80	47
81	241
82	182
83	454
84	720
85	94
86	40
87	342
88	47
89	115
91	26
92	12
93	52
94	77
95	169
96	359
97	364
98	999
99	124
100	142
101	212
102	42
103	31
105	19
106	17
107	42
108	21
109	92
110	107
111	175
112	291
113	93
114	124
115	78
116	29
117	16
118	5
119	37
120	27
121	45
122	87
123	97
124	106
125	85
126	18
127	38
129	43
130	29
131	7
132	4
133	16
135	24
137	47
138	79
139	47
140	32
141	32
142	6
143	13
144	6
145	3
148	58
149	126
150	16
151	10
153	35
154	24
155	9
156	20
157	8
158	7
159	31
161	3
166	18
167	100
168	13
171	5
172	7
173	4
181	6
182	47
183	8
185	6
197	3
199	5
200	252
201	67
202	18
218	7
