Mass Spectrum: (3R,4S,2E)-2-Hexadec-15-enylidene)-3-hydroxy-4-methylbutanolide
Formula: C21H36O3
CAS: 71325-94-5
Molecular weight: 336
m/z	intensity
41	680
43	540
55	600
57	400
69	320
70	999
71	140
81	280
83	240
95	300
97	200
140	300
142	200
292	70
308	90
318	30
336	120
