Mass Spectrum: 2(3H)-Furanone, 3-(15-hexadecynylidene)dihydro-4-hydroxy-5-methyl-, [4S-(3Z,4.alpha.,5.alpha.)]-
Formula: C21H34O3
CAS: 71325-95-6
Molecular weight: 334
m/z	intensity
41	700
43	750
55	520
57	600
69	280
70	999
71	220
81	500
83	200
95	260
97	120
140	100
142	130
290	40
306	30
316	30
334	40
