Mass Spectrum: Azuleno[5,6-c]furan-3(1H)-one, 4,4a,5,6,7,7a,8,9-octahydro-4,8-dihydroxy-6,6,8-trimethyl-, [4S-(4.alpha.,4a.alpha.,7a.alpha.,8.alpha.)]-
Formula: C15H22O4
CAS: 71328-48-8
Molecular weight: 266
m/z	intensity
41	480
43	999
53	150
55	270
57	130
59	180
67	100
69	200
77	150
81	130
83	150
91	160
95	280
105	140
107	100
119	90
123	100
141	100
145	90
151	150
169	120
174	150
191	170
205	90
206	90
215	100
217	90
233	130
248	190
