Mass Spectrum: Sulfide, tert-butyl cyclopentyl
Formula: C9H18S
CAS: 7133-19-9
Molecular weight: 158
m/z	intensity
24	0
25	1
26	21
27	173
28	35
29	257
30	6
31	0
32	3
33	3
34	3
35	3
36	0
37	6
38	19
39	273
40	39
41	598
42	34
43	12
44	0
45	116
46	11
47	20
48	2
49	13
50	6
51	12
52	4
53	32
54	6
55	66
56	127
57	999
58	60
59	89
60	74
61	18
62	4
63	3
64	1
65	18
66	16
67	131
68	271
69	418
70	24
71	23
72	5
73	30
74	25
75	116
76	7
77	5
78	0
79	0
81	1
82	0
83	1
84	1
85	5
86	0
87	14
88	3
89	10
90	1
91	4
92	0
93	0
95	0
96	0
97	2
98	0
99	3
100	41
101	70
102	237
103	48
104	12
105	2
106	0
115	1
116	0
129	0
130	0
143	26
144	2
145	1
158	253
159	27
160	12
161	1
