Mass Spectrum: Cyclopentane, (butylthio)-
Formula: C9H18S
CAS: 7133-16-6
Molecular weight: 158
m/z	intensity
24	0
25	2
26	51
27	461
28	75
29	436
30	10
31	0
32	4
33	3
34	6
35	16
36	1
37	8
38	25
39	398
40	64
41	999
42	61
43	54
44	2
45	243
46	55
47	242
48	11
49	14
50	8
51	18
52	7
53	75
54	17
55	149
56	251
57	413
58	51
59	107
60	98
61	136
62	11
63	12
64	2
65	37
66	35
67	537
68	989
69	754
70	43
71	35
72	10
73	84
74	47
75	14
76	5
77	1
78	0
79	2
80	0
81	90
82	9
83	2
84	2
85	15
86	2
87	48
88	21
89	58
90	50
91	313
92	18
93	13
94	0
95	3
96	0
97	4
98	1
99	8
100	19
101	639
102	172
103	58
104	9
105	1
113	0
114	0
115	165
116	15
117	8
118	0
128	0
129	95
130	12
131	5
132	0
143	1
156	0
157	4
158	549
159	60
160	28
161	2
