Mass Spectrum: 2(3H)-Furanone, 3-(15-hexadecynylidene)dihydro-4-hydroxy-5-methyl-, [4R-(3Z,4.alpha.,5.beta.)]-
Formula: C21H34O3
CAS: 71339-53-2
Molecular weight: 334
m/z	intensity
41	700
43	600
55	300
57	220
69	300
70	999
71	100
81	400
83	150
95	250
97	60
140	50
142	120
290	30
306	10
316	10
334	30
