Mass Spectrum: Ethanone, 1-[2-(4-bromophenyl)-4-methyl-5-thiazolyl]-
Formula: C12H10BrNOS
CAS: 71338-62-0
Molecular weight: 295
m/z	intensity
43	999
44	160
45	310
69	50
70	50
71	540
72	180
75	50
102	50
114	110
182	30
184	30
211	20
213	20
252	80
254	80
280	330
282	320
295	280
297	280
