Mass Spectrum: Sulfide, cyclopentyl propyl
Formula: C8H16S
CAS: 7133-14-4
Molecular weight: 144
m/z	intensity
24	0
25	3
26	57
27	488
28	62
29	107
30	2
31	1
32	5
33	5
34	7
35	6
36	1
37	14
38	41
39	479
40	49
41	999
42	159
43	402
44	14
45	281
46	69
47	231
48	11
49	12
50	7
51	16
52	6
53	70
54	8
55	44
56	3
57	7
58	53
59	114
60	81
61	50
62	8
63	10
64	2
65	42
66	40
67	568
68	998
69	620
70	35
71	42
72	11
73	101
74	74
75	42
76	57
77	309
78	15
79	16
80	1
81	89
82	7
83	1
84	2
85	14
86	1
87	33
88	2
89	32
90	1
91	1
93	0
95	0
97	4
98	0
99	7
100	13
101	540
102	101
103	33
104	4
105	0
111	0
113	0
115	231
116	22
117	11
118	1
129	2
130	0
142	0
143	3
144	512
145	51
146	24
147	2
