Mass Spectrum: (3R,2E)-2-(Hexadec-15-ynylidene)-3-hydroxy-4-methylenebutanolide
Formula: C21H32O3
CAS: 71339-49-6
Molecular weight: 332
m/z	intensity
41	999
43	370
55	720
57	130
69	350
70	999
71	120
81	450
83	250
95	350
97	180
140	100
261	30
289	30
304	30
314	10
332	20
