Mass Spectrum: Cyclohexane, [(1-methylethyl)thio]-
Formula: C9H18S
CAS: 7133-39-3
Molecular weight: 158
m/z	intensity
24	0
25	2
26	46
27	616
28	65
29	203
30	4
32	7
33	5
34	8
35	11
36	1
37	11
38	29
39	405
40	52
41	945
42	73
43	566
44	18
45	266
46	23
47	168
48	7
49	19
50	14
51	38
52	19
53	142
54	329
55	758
56	39
57	10
58	62
59	143
60	127
61	290
62	15
63	16
64	1
65	20
66	22
67	996
68	58
69	28
70	3
71	39
72	11
73	188
74	53
75	82
76	64
77	316
78	20
79	72
80	26
81	369
82	999
83	476
84	33
85	21
86	6
87	32
88	3
89	34
90	6
91	3
92	0
93	0
95	0
96	0
97	2
98	0
99	4
100	0
101	5
102	6
103	1
104	0
105	0
108	0
109	8
110	1
111	0
113	3
114	33
115	479
116	54
117	25
118	2
119	0
124	0
125	0
129	2
130	1
131	0
135	0
143	131
144	12
145	6
146	0
156	1
157	3
158	656
159	72
160	34
161	3
162	0
