Mass Spectrum: Sulfide, cyclopentyl hexyl
Formula: C11H22S
CAS: 7133-24-6
Molecular weight: 186
m/z	intensity
24	0
25	1
26	32
27	408
28	62
29	385
30	8
31	0
32	2
33	2
34	4
35	12
36	0
37	5
38	15
39	322
40	55
41	999
42	119
43	412
44	14
45	175
46	40
47	180
48	6
49	9
50	4
51	13
52	6
53	68
54	20
55	254
56	184
57	55
58	28
59	75
60	104
61	128
62	10
63	9
64	1
65	29
66	27
67	413
68	694
69	779
70	45
71	30
72	9
73	58
74	31
75	20
76	4
77	4
78	0
79	3
80	1
81	82
82	19
83	91
84	133
85	249
86	17
87	80
88	10
89	31
90	2
91	2
92	0
93	0
95	2
96	0
97	4
98	0
99	7
100	23
101	521
102	206
103	63
104	11
105	2
109	0
110	0
111	0
113	0
114	1
115	167
116	44
117	488
118	52
119	163
120	12
121	6
122	0
123	0
127	0
128	0
129	16
130	1
131	6
132	0
133	0
135	0
141	0
143	5
144	0
145	0
157	45
158	7
159	2
160	0
170	0
171	0
184	0
185	6
186	418
187	55
188	22
189	2
