Mass Spectrum: Sulfide, sec-butyl cyclopentyl
Formula: C9H18S
CAS: 7133-18-8
Molecular weight: 158
m/z	intensity
24	4
25	1
26	47
27	415
28	71
29	502
30	11
31	0
32	4
33	4
34	6
35	21
36	0
37	8
38	25
39	415
40	57
41	970
42	52
43	24
44	1
45	230
46	20
47	145
48	3
49	8
50	8
51	19
52	7
53	64
54	11
55	149
56	123
57	433
58	57
59	154
60	146
61	999
62	42
63	50
64	2
65	34
66	33
67	380
68	344
69	651
70	37
71	36
72	10
73	79
74	40
75	136
76	9
77	7
78	0
79	0
81	2
82	0
83	1
84	1
85	12
86	1
87	18
88	15
89	43
90	18
91	108
92	6
93	5
94	0
95	33
96	3
97	4
98	0
99	7
100	14
101	264
102	88
103	46
104	6
105	2
109	0
113	0
115	2
116	0
117	0
127	0
128	1
129	908
130	79
131	47
132	3
133	0
135	0
143	54
144	4
145	3
146	0
156	0
157	1
158	502
159	55
160	25
161	2
