Mass Spectrum: Sulfide, tert-butyl cyclohexyl
Formula: C10H20S
CAS: 7133-23-5
Molecular weight: 172
m/z	intensity
25	0
26	17
27	207
28	37
29	308
30	7
32	3
33	2
34	3
35	3
36	0
37	4
38	11
39	221
40	25
41	518
42	26
43	16
44	0
45	110
46	8
47	58
48	2
49	14
50	7
51	18
52	8
53	65
54	73
55	275
56	110
57	999
58	59
59	69
60	33
61	29
62	2
63	2
64	0
65	8
66	6
67	189
68	11
69	10
70	1
71	18
72	4
73	35
74	11
75	110
76	6
77	16
78	3
79	21
80	11
81	108
82	583
83	392
84	25
85	8
86	2
87	9
88	4
89	12
90	1
91	5
92	0
93	0
95	0
96	0
97	4
98	0
99	1
100	0
101	1
103	0
109	0
110	0
111	0
112	1
113	1
114	54
115	104
116	216
117	71
118	13
119	3
120	0
123	0
125	0
129	0
153	0
157	28
158	3
159	1
168	0
172	266
173	29
174	14
175	1
