Mass Spectrum: Sulfide, cyclohexyl isopentyl
Formula: C11H22S
CAS: 7133-43-9
Molecular weight: 186
m/z	intensity
24	0
25	1
26	32
27	493
28	68
29	374
30	8
31	0
32	3
33	2
34	5
35	12
36	0
37	5
38	13
39	337
40	41
41	918
42	107
43	403
44	14
45	190
46	52
47	154
48	6
49	8
50	9
51	28
52	15
53	134
54	226
55	945
56	65
57	48
58	32
59	60
60	62
61	214
62	10
63	12
64	1
65	18
66	17
67	676
68	49
69	135
70	762
71	248
72	16
73	66
74	15
75	20
76	4
77	23
78	6
79	45
80	15
81	272
82	999
83	684
84	48
85	19
86	4
87	106
88	7
89	25
90	1
91	2
93	0
95	36
96	6
97	3
98	0
99	3
100	1
101	7
102	43
103	102
104	16
105	117
106	7
107	5
108	0
109	1
110	0
111	1
112	0
113	2
114	20
115	185
116	106
117	34
118	7
119	1
127	0
128	0
129	101
130	27
131	7
132	1
133	0
143	79
144	7
145	4
146	0
157	9
158	1
159	0
171	4
172	1
173	0
184	0
185	4
186	572
187	76
188	29
189	3
