Mass Spectrum: 2(3H)-Furanone, 3-(15-hexadecynylidene)dihydro-4-hydroxy-5-methyl-,4R-(3E,4.alpha.,5.beta.)-
Formula: C21H34O3
CAS: 71339-54-3
Molecular weight: 334
m/z	intensity
41	830
43	610
55	720
57	380
69	330
70	999
71	140
81	550
83	270
95	430
97	200
140	170
142	140
290	70
306	10
316	20
334	30
