Mass Spectrum: 2-Phenyl[1,3]dioxane-5,5-dicarboxylic acid, diethyl ester
Formula: C16H20O6
CAS: 71348-41-9
Molecular weight: 308
m/z	intensity
25	2
26	50
27	299
28	57
29	672
30	17
31	101
37	10
38	16
39	54
40	39
41	33
42	11
43	45
44	14
45	45
46	3
47	11
49	9
50	64
51	148
52	32
53	20
54	81
55	169
56	46
57	55
58	12
59	158
60	6
61	4
62	5
63	13
64	5
65	12
66	7
67	3
68	16
69	24
70	4
71	20
72	33
73	53
74	22
75	15
76	23
77	323
78	138
79	86
80	6
82	13
83	145
84	37
85	98
86	45
87	5
88	3
89	12
90	12
91	20
92	8
93	2
94	9
95	2
96	2
97	3
98	6
99	260
100	33
101	81
102	12
103	5
104	9
105	999
106	114
107	55
108	5
110	5
111	4
112	31
113	87
114	23
115	5
116	3
117	9
118	6
119	9
120	6
121	2
122	123
123	12
126	16
127	742
128	66
129	84
130	22
131	13
132	2
133	2
135	13
136	2
140	20
141	36
142	5
143	12
144	6
145	46
146	4
147	2
149	3
156	4
157	48
158	30
159	47
160	6
161	5
162	1
171	2
172	5
173	517
174	50
175	8
185	1
186	59
187	38
188	5
189	26
190	5
191	1
201	2
202	3
203	5
204	2
217	14
218	2
219	5
231	19
232	2
233	6
234	1
235	32
236	5
263	41
264	6
274	2
279	75
280	11
281	2
307	82
308	19
309	4
