Mass Spectrum: 2-Chloro-N,N-dimethyl-acrylamide
Formula: C5H8ClNO
CAS: 71364-54-0
Molecular weight: 133
m/z	intensity
25	94
26	347
27	126
28	272
29	54
30	27
31	7
35	32
36	21
37	39
38	42
39	61
40	98
41	161
42	617
43	149
44	218
45	24
46	18
47	15
48	7
49	24
50	11
51	21
52	32
53	177
54	86
55	262
56	123
57	12
58	282
59	17
60	55
61	562
62	54
63	210
64	20
65	12
66	24
67	12
68	36
69	27
70	107
71	15
72	999
73	59
74	11
75	21
76	11
77	13
78	9
79	6
80	7
81	7
82	10
83	9
84	8
85	7
87	8
88	8
89	457
90	39
91	161
92	18
93	6
94	6
95	8
96	160
97	30
98	383
99	32
100	7
101	6
102	7
103	7
104	29
105	8
106	14
107	6
117	6
118	12
131	28
132	472
133	503
134	209
135	182
136	18
