Mass Spectrum: m-Hydroxycocaine
Formula: C17H21NO5
CAS: 71387-58-1
Molecular weight: 319
m/z	intensity
15	16
20	1
26	3
27	13
28	22
29	13
30	11
31	3
32	9
33	1
36	1
37	1
38	7
39	81
40	7
41	51
42	192
43	13
44	32
45	8
46	1
47	1
50	5
51	7
52	6
53	38
54	20
55	59
56	28
57	37
58	9
59	43
60	2
62	4
63	20
64	19
65	162
66	22
67	50
68	50
69	16
70	21
71	7
72	2
73	3
74	3
75	3
76	2
77	18
78	11
79	28
80	32
81	103
82	999
83	373
84	43
85	4
86	1
87	1
91	46
92	30
93	202
94	410
95	48
96	262
97	114
98	11
99	3
100	3
101	5
102	1
103	1
104	1
105	4
106	8
107	14
108	45
109	10
110	21
111	4
112	2
113	1
114	4
115	3
116	1
117	3
118	6
119	36
120	27
121	307
122	107
123	19
124	12
125	4
126	5
127	1
128	2
130	1
131	1
132	3
133	3
134	3
135	7
136	4
137	2
138	38
139	4
140	13
141	2
142	2
144	1
145	1
147	2
148	4
149	2
150	21
151	4
152	42
153	9
154	15
155	28
156	4
160	2
164	1
165	1
166	32
167	4
168	11
169	2
170	2
171	1
175	1
176	1
178	1
179	2
180	18
181	40
182	816
183	92
184	9
185	1
193	1
198	87
199	9
200	1
216	1
230	1
258	1
260	3
261	1
275	1
288	50
289	8
290	2
304	1
318	3
319	157
320	30
321	4
