Mass Spectrum: Silane, trimethyl[4-(trimethylsilyl)butoxy]-
Formula: C10H26OSi2
CAS: 7140-91-2
Molecular weight: 218
m/z	intensity
26	1
27	8
28	6
29	13
30	1
31	15
36	0
39	5
40	0
41	20
42	4
43	49
44	27
45	110
46	7
47	20
48	0
49	0
51	1
52	2
53	2
54	1
55	13
56	16
57	9
58	23
59	92
60	8
61	18
62	1
63	0
64	0
66	34
67	3
69	1
70	2
71	8
72	24
73	999
74	80
75	71
76	4
77	1
83	1
84	0
85	20
86	4
87	35
88	4
89	3
97	2
99	9
100	6
101	26
102	4
103	31
104	3
105	3
106	0
110	0
111	1
113	300
114	35
115	153
116	24
117	13
118	1
119	6
120	0
128	40
129	11
130	2
131	24
132	3
133	18
134	2
135	1
143	0
144	0
145	2
147	693
148	107
149	53
150	5
151	1
159	1
163	19
164	3
165	1
203	2
204	0
