Mass Spectrum: o-((Benzylcarbamoyl)methyl)benzoic acid
Formula: C16H15NO3
CAS: 71402-67-0
Molecular weight: 269
m/z	intensity
17	7
18	1
26	1
27	9
28	50
29	9
30	51
31	1
37	5
38	10
39	49
40	6
41	9
42	1
43	9
44	9
45	19
49	3
50	32
51	64
52	19
53	14
54	3
55	2
56	1
57	2
59	9
60	1
61	8
62	23
63	64
64	21
65	100
66	6
67	1
69	1
71	1
73	2
74	10
75	9
76	13
77	143
78	58
79	166
80	13
81	1
82	1
83	1
84	1
85	3
86	5
87	6
88	7
89	133
90	219
91	999
92	100
93	5
95	1
96	1
97	3
101	1
102	3
103	13
104	39
105	37
106	549
107	253
108	23
109	1
110	1
111	1
114	2
115	9
116	6
117	9
118	487
119	72
120	5
125	2
126	1
128	1
130	2
131	1
132	39
133	18
134	14
135	86
136	232
137	20
138	2
143	7
144	6
145	19
146	35
147	6
148	2
149	1
150	1
151	1
152	1
161	5
162	33
163	6
164	1
165	4
166	1
167	2
168	1
176	1
177	1
178	3
179	5
180	3
181	1
192	1
193	4
194	9
195	2
204	1
205	1
206	2
207	2
208	16
209	3
211	1
221	2
222	23
223	37
224	7
225	6
226	1
232	1
233	1
234	1
249	2
250	1
251	125
252	22
253	2
269	135
270	25
271	3
