Mass Spectrum: Methyl Ester of Pregabalin
Formula: C9H19NO2
CAS: 714230-22-5
Molecular weight: 173
m/z	intensity
26	1
27	30
28	46
29	47
30	999
31	32
32	19
33	3
38	1
39	45
40	12
41	181
42	38
43	108
44	33
45	8
47	1
49	2
50	1
51	3
52	2
53	23
54	18
55	192
56	341
57	41
58	119
59	155
60	6
61	1
65	5
66	3
67	32
68	26
69	57
70	24
71	9
72	9
73	3
74	22
75	3
77	4
78	1
79	15
80	5
81	45
82	26
83	42
84	27
85	11
86	3
87	55
88	11
89	1
91	2
93	4
94	2
95	18
96	11
97	28
98	33
99	159
100	110
101	71
102	5
105	1
107	5
108	1
109	15
110	2
111	7
112	7
113	3
114	2
115	2
116	32
117	487
118	29
119	2
123	7
124	17
125	20
126	11
127	1
129	1
130	8
131	1
140	4
141	14
142	123
143	24
144	2
156	1
158	4
173	2
174	5
