Mass Spectrum: Methyl ecgonine
Formula: C10H17NO3
CAS: 7143-09-1
Molecular weight: 199
m/z	intensity
15	55
16	1
18	1
19	1
26	6
27	43
28	50
29	56
30	29
31	20
32	11
33	8
37	1
38	4
39	64
40	14
41	98
42	350
43	61
44	49
45	12
46	1
47	1
48	1
50	3
51	10
52	10
53	46
54	45
55	150
56	72
57	80
58	32
59	37
60	3
61	3
63	2
64	1
65	18
66	14
67	56
68	92
69	41
70	49
71	40
72	6
73	2
74	2
75	1
76	3
77	15
78	9
79	22
80	38
81	65
82	999
83	553
84	94
85	9
86	34
87	4
88	1
90	1
91	16
92	6
93	24
94	275
95	35
96	677
97	328
98	46
99	6
100	39
101	4
102	2
103	2
104	1
105	1
106	4
107	7
108	21
109	7
110	43
111	9
112	99
113	9
114	5
115	4
116	10
117	2
118	4
119	8
120	10
121	4
122	34
123	8
124	24
125	5
126	22
127	2
128	6
129	2
130	1
132	1
133	1
134	1
135	2
136	8
137	2
138	25
139	4
140	64
141	6
142	7
143	1
144	2
148	2
149	1
150	3
151	1
152	19
153	2
154	17
155	40
156	19
157	2
166	10
167	2
168	92
169	10
170	21
171	7
172	1
180	1
181	3
182	51
183	5
184	5
197	1
198	3
199	88
200	10
201	1
