Mass Spectrum: Tetra-O-benzoyl-D-xylononitrile
Formula: C33H25NO8
CAS: 71439-38-8
Molecular weight: 563
m/z	intensity
51	249
77	999
93	7
105	993
106	937
122	84
177	3
188	4
215	50
269	185
281	398
294	26
319	103
403	63
428	12
441	32
