Mass Spectrum: 1-[3-(2-Bromophenyl)-2-thioureido]-1-deoxy-.beta.-d-glucopyranose 2,3,4,6-tetraacetate
Formula: C21H25BrN2O9S
CAS: 71454-63-2
Molecular weight: 560
m/z	intensity
38	50
40	22
43	999
44	49
45	29
46	20
50	17
51	12
52	9
53	7
55	19
56	7
57	11
58	8
59	17
60	34
61	12
63	21
64	11
65	19
66	5
67	3
69	26
70	13
71	13
72	12
73	11
74	9
75	11
76	9
77	10
79	8
80	12
81	30
82	10
83	9
84	11
85	12
86	6
88	20
90	14
91	11
92	12
93	8
97	37
98	10
99	10
100	15
101	7
102	8
103	9
109	111
110	6
111	5
112	12
113	4
115	18
116	3
117	3
118	5
119	3
123	6
124	6
126	31
127	20
128	3
130	3
134	16
135	14
136	6
139	9
141	4
142	4
143	3
144	3
145	5
150	13
151	24
152	3
153	2
154	4
155	4
157	5
163	3
168	24
169	38
170	6
171	9
172	5
173	8
174	3
175	3
177	9
179	3
187	2
193	3
199	2
210	3
213	8
214	6
215	6
216	5
217	3
231	3
241	9
259	4
301	6
319	3
421	4
481	7
