Mass Spectrum: 1-Cyclohexanol, 2-(2-ethylbutyl)-
Formula: C12H24O
CAS: 7146-78-3
Molecular weight: 184
m/z	intensity
26	4
27	230
29	432
30	13
31	72
39	146
40	46
41	676
42	106
43	722
44	73
45	48
49	2
51	15
52	6
53	99
54	114
55	764
56	106
57	338
58	34
59	49
60	2
63	3
65	24
66	34
67	598
68	174
69	473
70	252
71	186
72	19
73	28
77	33
78	7
79	87
80	66
81	795
82	558
83	193
84	999
85	885
86	57
87	13
88	27
91	17
92	2
93	34
94	55
95	674
96	279
97	252
98	72
99	19
100	6
101	6
105	3
107	14
108	8
109	82
110	40
111	53
112	10
113	25
114	10
115	5
116	5
121	11
122	7
123	32
124	14
125	4
127	2
133	2
135	13
136	28
137	852
138	101
139	7
151	3
154	1
155	14
162	4
163	5
164	47
165	11
166	380
167	51
168	5
181	9
182	8
183	3
184	6
