Mass Spectrum: N-Dimethylaminomethyl-isopropylbenzylphosphine
Formula: C13H22NP
CAS: 71478-32-5
Molecular weight: 223
m/z	intensity
41	24
42	53
43	65
57	47
58	999
59	89
60	3
91	242
92	65
93	3
123	12
124	35
166	77
167	77
168	112
169	5
180	30
181	6
223	35
224	3
