Mass Spectrum: Diisopropyl-dimethylaminomeyhyl-phosphine P-oxide
Formula: C9H22NOP
CAS: 71478-30-3
Molecular weight: 191
m/z	intensity
41	252
42	93
43	767
44	88
57	62
58	999
59	93
60	4
63	72
64	129
65	402
66	41
72	36
74	46
75	57
76	93
89	36
90	57
91	72
92	541
93	93
94	4
105	62
106	67
107	500
108	314
109	72
110	57
111	46
133	129
134	165
135	46
149	829
150	216
151	489
152	93
153	6
176	98
177	15
191	108
192	21
193	5
