Mass Spectrum: Phenyl-tert-butyl-(morpholine-4-yl)methyl-phosphine
Formula: C15H24NOP
CAS: 71478-36-9
Molecular weight: 265
m/z	intensity
41	497
42	124
43	89
56	242
57	999
58	130
59	12
65	65
84	106
85	9
86	71
87	171
88	12
99	30
100	715
101	71
102	3
107	71
108	231
109	207
110	644
111	41
124	35
126	53
127	3
166	420
167	65
168	5
