Mass Spectrum: 2H-Pyran, 4-bromo-3,4-dihydro-
Formula: C5H7BrO
CAS: 71473-35-3
Molecular weight: 162
m/z	intensity
37	22
38	57
39	365
40	46
41	34
42	9
43	78
44	5
49	13
50	110
51	165
52	63
53	433
54	185
55	658
56	29
57	11
58	2
65	28
68	10
70	1
79	4
80	3
81	39
82	37
83	999
84	58
92	0
93	6
95	2
104	5
105	58
106	114
107	69
108	104
109	6
117	2
119	19
120	2
121	13
122	0
132	1
133	110
134	167
135	118
136	154
137	7
146	0
147	9
149	7
161	11
162	347
163	32
164	335
165	16
