Mass Spectrum: tert-Butyl-benzyl-dimethylaminomethyl-phosphine
Formula: C14H24NP
CAS: 71478-33-6
Molecular weight: 237
m/z	intensity
41	91
42	18
43	18
57	587
58	999
59	42
60	2
77	18
78	42
91	309
92	36
93	3
122	18
123	36
124	67
125	5
180	163
181	18
182	2
237	6
