Mass Spectrum: Cyclopentene-1-carboxylic acid, 2-amino-, ethyl ester
Formula: C8H13NO2
CAS: 7149-18-0
Molecular weight: 155
m/z	intensity
34	0
37	4
38	22
39	100
40	40
41	95
42	288
43	40
44	22
45	19
46	3
49	2
50	16
51	42
52	132
53	263
54	255
55	161
56	31
57	9
58	3
60	0
61	1
63	9
64	10
65	58
66	43
67	86
68	42
69	5
70	7
71	8
72	10
73	3
75	1
77	3
78	13
79	25
80	369
81	294
82	999
83	219
84	16
86	2
92	1
93	2
94	4
95	2
96	3
97	3
98	12
100	0
101	0
106	3
108	525
109	227
110	640
111	47
112	7
114	0
124	3
126	402
127	52
128	4
136	1
140	4
142	0
152	1
154	217
155	407
156	36
157	2
