Mass Spectrum: 1-Benzoyl-4,4-dimethylazetidin-2-one
Formula: C12H13NO2
CAS: 715-27-5
Molecular weight: 203
m/z	intensity
39	41
40	25
41	102
42	17
50	39
51	143
52	7
56	591
57	27
70	57
71	11
76	30
77	487
78	28
104	23
105	999
106	95
148	520
149	47
185	3
188	31
203	264
204	42
