Mass Spectrum: 2-Ethyl-1-trimethylsilyloxyhexene
Formula: C11H24OSi
CAS: 71504-20-6
Molecular weight: 200
m/z	intensity
55	60
56	40
57	120
58	60
59	70
63	60
69	120
73	999
74	80
75	200
76	35
157	420
158	60
159	30
185	50
200	60
201	10
202	3
