Mass Spectrum: Tellurium(IV), difluoro methyl phenyl-
Formula: C7H8F2Te
CAS: 71510-57-1
Molecular weight: 260
m/z	intensity
34	6
35	1
36	2
37	11
38	39
39	95
40	6
41	22
42	4
43	12
44	22
45	4
46	3
47	2
48	1
49	18
50	406
51	957
52	52
53	3
54	1
55	9
56	7
57	22
58	3
59	3
60	1
61	6
62	16
63	33
64	7
65	55
66	4
67	2
68	6
69	17
70	36
71	6
72	1
73	19
74	126
75	163
76	128
77	999
78	83
79	5
80	0
81	5
82	1
83	9
84	3
85	5
86	8
87	2
88	2
89	22
90	8
91	346
92	33
93	5
94	13
95	103
96	739
97	49
98	2
99	1
100	2
101	1
102	1
103	2
104	1
105	1
106	0
107	2
108	1
109	14
110	5
111	2
112	1
113	2
114	9
115	1
117	0
118	1
119	1
120	2
121	5
122	7
123	2
124	7
125	11
126	27
127	2
128	47
129	4
130	50
131	5
132	0
133	0
134	0
135	1
136	1
137	4
138	5
139	11
140	13
141	23
142	16
143	35
144	26
145	49
146	1
147	47
148	1
149	53
150	3
151	5
152	1
153	8
154	3
155	9
156	39
157	15
158	71
159	114
160	272
161	16
162	460
163	22
164	511
165	11
166	8
167	8
168	9
169	0
170	0
171	0
172	1
173	2
174	3
175	8
176	3
177	14
178	13
179	37
180	2
181	52
182	1
183	56
184	1
186	0
187	0
189	1
191	1
193	0
194	0
195	0
196	1
197	1
198	1
199	4
200	2
201	7
202	10
203	21
204	6
205	34
206	6
207	36
208	4
209	1
210	1
211	1
212	2
213	1
214	1
215	1
216	3
217	8
218	15
219	10
220	33
221	34
222	42
223	43
224	43
225	45
226	44
227	3
230	0
231	0
232	0
233	8
234	4
235	19
236	25
237	94
238	22
239	156
240	106
241	338
242	25
243	384
244	29
245	427
246	27
247	1
249	1
250	0
251	1
252	6
253	4
254	10
255	16
256	37
257	3
258	61
259	5
260	68
261	5
