Mass Spectrum: Acetamide, N-(2,4-dihydroxyphenyl)-
Formula: C8H9NO3
CAS: 71516-07-9
Molecular weight: 167
m/z	intensity
25	4
26	11
27	22
29	30
30	7
31	42
37	7
38	15
39	42
40	4
41	49
42	47
43	234
44	10
45	6
48	4
49	5
50	17
51	38
52	66
53	33
54	26
55	31
56	11
57	4
60	4
61	4
62	6
63	8
64	5
65	6
66	10
67	23
68	35
69	37
70	10
71	4
73	3
74	3
75	4
76	6
77	6
78	17
79	26
80	49
81	13
82	9
83	5
84	4
92	4
93	5
94	9
95	13
96	142
97	15
98	4
106	7
107	13
108	5
110	4
120	5
121	4
122	3
124	99
125	999
126	77
127	9
138	4
148	6
149	33
150	6
151	7
152	4
166	3
167	274
168	29
169	6
