Mass Spectrum: 2-Fluoro-5-imidazolecarboxylic acid, ethyl ester
Formula: C6H7FN2O2
CAS: 71518-44-0
Molecular weight: 158
m/z	intensity
41	45
42	13
43	36
44	5
45	75
46	57
47	6
48	1
49	7
51	6
52	3
53	27
54	15
55	16
56	12
57	59
58	262
59	22
60	3
64	0
65	6
66	14
67	16
68	7
69	4
70	2
71	5
72	2
73	9
74	5
75	1
77	1
78	2
79	2
81	5
82	7
84	150
85	194
86	121
87	8
88	1
91	2
93	4
94	3
95	5
96	1
97	3
98	0
99	7
100	2
101	6
102	2
105	1
106	2
107	1
108	1
109	3
110	21
112	999
113	682
114	104
115	9
117	1
118	0
119	0
120	5
121	1
123	2
124	1
128	5
129	20
130	801
131	46
132	5
134	0
135	0
137	0
138	1
140	0
141	1
142	4
143	28
144	2
145	1
156	1
157	21
158	388
159	50
160	7
161	2
