Mass Spectrum: 1,3(2H)-Benzodioxole, 2-[(diethylamino)methyl]-5-[(2,4-diamino-5-pyrimidinyl)methyl]-
Formula: C17H23N5O2
CAS: 71525-14-9
Molecular weight: 329
m/z	intensity
41	11
42	44
43	42
44	12
47	5
48	1
49	2
50	1
51	1
52	7
53	8
54	13
55	4
56	24
57	5
58	73
59	2
62	2
63	5
64	0
65	4
67	3
68	6
69	3
70	9
71	4
72	9
75	0
76	1
77	7
78	5
79	4
81	19
82	2
83	1
84	17
86	999
87	45
89	10
90	3
91	3
99	0
101	0
102	2
103	1
104	3
105	5
106	3
107	1
111	0
114	3
115	2
116	5
117	5
118	3
121	1
123	22
128	2
131	3
132	1
135	0
142	2
143	4
144	2
145	2
146	0
147	0
156	3
162	0
170	1
173	1
184	0
185	5
186	1
187	3
197	0
201	0
213	3
215	3
216	2
243	11
244	2
329	20
330	3
