Mass Spectrum: 4,6-Diamino-5-pyrimidinyl hydrogensulfate
Formula: C4H6N4O4S
CAS: 71525-41-2
Molecular weight: 206
m/z	intensity
41	14
42	45
43	233
44	436
45	19
46	2
48	462
50	29
51	1
52	4
53	53
54	166
55	39
56	15
57	10
59	2
60	1
64	999
65	41
66	42
67	14
68	6
69	6
70	3
71	161
72	9
73	0
79	3
80	54
81	53
82	70
83	8
84	4
86	4
88	0
93	0
95	0
96	6
97	0
98	26
99	11
100	0
109	75
110	12
111	3
125	30
126	439
127	62
128	2
135	4
136	120
137	22
138	1
139	0
140	1
144	0
151	18
152	18
153	2
154	1
161	1
162	0
164	0
179	7
180	2
188	0
206	1
