Mass Spectrum: Hippuric acid N,O-d-methyl derivative
Formula: C11H13NO3
CAS: 71533-21-6
Molecular weight: 207
m/z	intensity
48	4
50	47
51	138
52	11
53	4
58	4
59	18
63	3
65	3
73	4
74	19
75	14
77	394
78	29
91	8
102	37
103	7
105	999
106	77
134	4
146	6
148	141
149	18
175	4
176	13
188	0
206	147
207	78
208	13
