Mass Spectrum: 1-(3-Hydroxypropyl)-2-piperidinone  #
Formula: C8H15NO2
CAS: 71533-22-7
Molecular weight: 157
m/z	intensity
112	855
113	999
124	358
126	297
127	139
139	288
157	181
