Mass Spectrum: Pyrimido[4,5-d]pyrimidine-2,7(1H,3H)-dione, hexahydro-1,4,5,6-tetramethyl-
Formula: C10H18N4O2
CAS: 71541-03-2
Molecular weight: 226
m/z	intensity
39	22
40	34
41	67
42	205
43	90
44	101
45	3
50	1
51	3
52	5
53	12
54	12
55	21
56	45
57	17
58	51
59	1
62	0
63	0
64	0
65	3
66	5
67	17
68	46
69	17
70	49
71	7
72	3
73	4
74	9
75	3
76	0
77	3
78	2
79	3
80	14
81	14
82	52
83	24
84	85
85	18
86	1
87	0
91	0
92	0
93	2
94	12
95	9
96	8
97	16
98	11
99	11
100	8
101	11
102	1
103	0
106	0
107	0
108	5
109	11
110	32
111	534
112	34
113	13
114	4
115	0
122	0
123	6
124	38
125	999
126	88
127	168
128	10
129	0
135	0
136	0
137	101
138	9
139	8
140	10
141	1
142	0
149	0
150	1
151	132
152	327
153	63
154	15
155	2
156	1
166	3
167	1
168	7
169	0
171	1
180	16
181	1
182	4
183	0
195	1
196	3
211	10
212	0
224	0
226	0
