Mass Spectrum: 3,6,10,13-Tetrathia(4,5,11,12-trans-dicyclohexano)-[6.6.1]propellane
Formula: C19H30S4
CAS: 71541-24-7
Molecular weight: 386
m/z	intensity
17	33
18	42
26	19
27	93
28	56
29	65
32	24
33	19
34	32
38	18
39	143
40	22
41	298
42	17
43	24
44	17
45	257
47	127
50	29
51	65
52	38
53	182
54	118
55	120
58	47
59	70
60	38
61	46
65	84
66	45
67	247
69	18
71	120
72	38
73	96
76	15
77	221
78	65
79	405
80	109
81	999
82	115
83	19
84	27
85	125
86	38
87	46
91	184
92	74
93	167
94	46
95	19
97	129
98	33
99	74
101	17
103	30
104	17
105	19
110	65
111	285
112	157
113	129
114	56
115	192
117	45
123	76
124	522
125	486
126	107
127	65
128	19
129	102
131	19
139	17
141	19
142	32
143	56
144	38
145	27
146	13
147	19
151	15
153	24
155	24
156	56
157	313
158	118
159	116
160	29
161	24
178	21
185	38
186	41
187	24
189	19
190	21
191	21
199	45
200	19
205	24
225	33
237	19
238	38
239	221
240	42
241	38
271	486
272	326
273	133
274	56
275	18
304	77
305	18
306	29
386	73
387	29
388	19
