Mass Spectrum: 1,4-Dihydroxymethyl-2,3,5,6-tetrachlorobenzene
Formula: C8H6Cl4O2
CAS: 7154-26-9
Molecular weight: 274
m/z	intensity
14	2
15	1
17	8
18	4
19	11
25	2
26	9
27	16
28	53
29	373
30	36
31	999
32	10
33	2
35	20
36	119
37	46
38	36
39	31
40	2
42	4
43	23
44	9
47	19
48	8
49	44
50	86
51	85
52	12
53	24
54	9
55	20
56	6
57	3
58	2
59	1
60	43
61	90
62	57
63	53
64	4
65	47
66	7
67	16
68	7
69	10
70	5
71	23
72	41
73	171
74	236
75	241
76	27
77	52
78	20
79	20
80	7
81	1
82	1
83	36
84	84
85	141
86	100
87	76
88	11
89	22
90	9
91	17
92	7
93	20
94	14
95	24
96	36
97	78
98	25
99	34
100	8
101	17
102	20
103	19
104	5
105	11
106	9
107	81
108	169
109	299
110	117
111	371
112	100
113	105
114	27
115	6
116	2
117	4
118	31
119	51
120	70
121	75
122	27
123	109
124	16
125	32
126	6
127	2
128	5
129	4
130	9
131	23
132	8
133	42
134	10
135	29
136	10
137	27
138	9
139	50
140	9
141	28
142	42
143	122
144	78
145	260
146	140
147	178
148	75
149	53
150	14
151	9
152	4
153	2
154	3
155	12
156	9
157	181
158	72
159	143
160	47
161	44
162	10
163	5
164	2
165	3
166	2
167	16
168	6
169	18
170	22
171	24
172	21
173	83
174	35
175	70
176	25
177	34
178	21
179	75
180	83
181	132
182	75
183	89
184	24
185	28
186	38
187	14
188	22
189	8
190	5
191	63
192	61
193	615
194	126
195	585
196	84
197	181
198	23
199	20
200	3
201	38
202	58
203	428
204	79
205	272
206	39
207	89
208	24
209	85
210	19
211	52
212	10
213	20
214	9
215	18
216	9
217	17
218	6
219	8
220	11
221	797
222	86
223	762
224	76
225	252
226	29
227	175
228	75
229	198
230	86
231	98
232	40
233	25
234	9
235	8
236	4
237	36
238	50
239	770
240	124
241	737
242	94
243	250
244	33
245	39
246	7
247	7
248	1
249	2
251	1
255	27
256	17
257	87
258	26
259	83
260	18
261	34
262	6
263	8
264	1
265	2
267	2
269	2
271	8
272	3
273	42
274	550
275	112
276	684
277	102
278	340
279	41
280	77
281	9
282	7
283	2
