Mass Spectrum: 2,4,6-Triamino-5-pyrimidinyl hydrogen sulfate
Formula: C4H7N5O4S
CAS: 71552-23-3
Molecular weight: 221
m/z	intensity
41	3
42	56
43	186
44	329
45	23
48	358
50	28
54	6
64	999
65	120
66	37
67	3
68	5
69	24
70	4
71	18
80	18
96	14
98	8
99	12
111	8
112	5
113	7
124	5
126	32
140	34
141	45
151	4
