Mass Spectrum: 1-Indolinethiocarboxylic acid 2-[1-[2-pyridyl]ethylidine]hydrazide
Formula: C16H16N4S
CAS: 71555-45-8
Molecular weight: 296
m/z	intensity
41	119
43	8
44	36
45	31
46	6
47	5
48	2
49	25
50	162
51	521
52	272
53	60
54	15
55	6
56	2
58	142
59	41
60	39
61	17
62	46
63	132
64	67
65	216
66	24
67	11
69	10
70	4
71	5
72	11
73	5
74	20
75	37
76	61
77	280
78	999
79	637
80	52
81	2
82	7
83	3
84	11
85	1
86	12
87	6
88	3
89	149
90	110
91	490
92	83
93	18
94	1
95	2
96	1
97	2
99	11
101	22
102	29
103	44
104	167
105	116
106	226
107	24
108	0
109	8
110	1
111	2
112	0
114	1
115	6
116	36
117	284
118	772
119	834
120	221
121	644
122	54
123	2
124	7
125	0
127	1
128	253
129	47
130	30
131	12
132	20
133	11
134	33
135	9
136	8
137	7
138	15
139	1
140	1
142	5
143	26
144	20
145	2
146	39
147	1
148	70
149	7
150	286
151	52
152	48
153	5
154	1
156	1
157	2
159	1
160	3
161	1
162	110
163	18
164	12
165	2
166	1
167	2
168	0
175	4
176	37
177	220
178	146
179	31
180	8
181	1
182	0
184	3
185	0
190	1
191	1
192	0
193	2
194	7
195	5
196	13
197	6
198	0
207	0
208	3
209	12
210	11
211	2
216	0
218	98
219	14
220	6
221	12
222	8
224	3
225	0
233	2
234	0
235	3
236	2
237	2
250	0
251	1
254	0
261	0
262	0
263	9
264	2
267	12
268	2
279	1
280	1
281	98
282	16
283	6
284	0
293	2
294	2
296	527
297	111
298	34
299	5
