Mass Spectrum: Ketone, methyl 2-pyridyl, 4-cyclohexyl-4-methyl-3-thiosemicarbazone
Formula: C15H22N4S
CAS: 71555-19-6
Molecular weight: 290
m/z	intensity
41	464
42	378
43	96
44	138
45	24
46	8
47	38
48	16
49	155
50	93
51	354
52	181
53	109
54	77
55	505
56	125
57	331
58	44
59	22
60	49
61	9
62	15
63	24
64	22
65	44
66	27
67	66
68	137
69	33
70	999
71	94
72	19
73	16
74	254
75	21
76	57
77	87
78	742
79	450
80	51
81	80
82	56
83	150
84	169
85	4
86	77
87	5
88	29
89	13
90	7
91	23
92	37
93	40
94	37
95	13
96	29
97	11
98	102
99	14
100	5
101	2
102	5
103	5
104	157
105	97
106	151
107	27
108	7
109	14
110	48
111	62
112	811
113	195
114	35
115	38
116	10
117	16
118	7
119	41
120	41
121	819
122	87
123	9
124	29
125	4
126	6
127	13
128	22
129	8
130	36
131	8
132	18
133	31
134	43
135	9
136	8
137	48
138	19
139	10
140	12
141	94
142	38
143	8
144	8
145	5
146	5
147	65
148	29
149	25
150	19
151	16
152	7
153	3
154	10
155	10
156	22
157	11
158	3
159	3
160	35
161	11
162	3
163	4
164	4
165	1
166	2
167	2
168	6
169	42
170	42
171	26
172	8
173	4
174	3
175	2
176	15
177	93
178	25
179	9
180	3
181	2
182	4
183	3
184	0
185	6
186	4
187	2
188	0
191	1
192	3
193	23
194	10
195	35
196	20
197	8
198	2
199	2
200	0
201	11
202	2
205	0
206	0
207	4
208	2
209	28
210	77
211	12
212	21
213	7
214	2
219	0
223	29
224	5
226	2
227	1
229	50
230	7
231	5
237	2
239	4
240	0
243	3
244	3
245	1
247	0
252	2
253	1
254	1
256	4
257	3
258	6
259	2
261	1
262	4
263	1
268	0
269	0
270	0
274	0
275	21
276	4
277	2
278	0
287	0
288	1
290	182
291	35
292	11
293	1
