Mass Spectrum: 1-Azacyclotridecane-1-thiocarboxylic acid, 2-[1-[2-pyridyl]ethylidene]hydrazide
Formula: C20H32N4S
CAS: 71555-44-7
Molecular weight: 360
m/z	intensity
41	730
42	275
43	495
44	815
45	101
46	12
47	6
48	1
49	27
50	157
51	467
52	220
53	92
54	59
55	505
56	559
57	223
58	134
59	61
60	40
61	12
62	15
63	32
64	22
65	43
66	13
67	98
68	59
69	157
70	353
71	52
72	154
73	28
74	18
75	24
76	46
77	77
78	999
79	384
80	30
81	63
82	71
83	53
84	141
85	28
86	139
87	19
88	6
89	6
90	7
91	17
92	65
93	16
94	7
95	41
96	64
97	32
98	120
99	31
100	94
101	17
102	8
103	9
104	172
105	108
106	80
107	18
108	6
109	20
110	24
111	6
112	118
113	13
114	36
115	10
116	13
117	31
118	6
119	46
120	47
121	767
122	68
123	15
124	14
125	4
126	81
127	12
128	25
129	6
130	3
131	5
132	6
133	24
134	29
135	9
136	13
137	16
138	14
139	5
140	93
141	14
142	92
143	12
144	3
145	4
146	4
148	88
149	39
150	26
151	22
152	11
153	3
154	42
155	10
156	4
157	3
158	0
159	6
160	1
161	1
162	4
163	2
164	10
165	3
166	7
167	1
168	20
169	6
170	3
171	2
173	1
174	0
176	70
177	405
178	89
179	27
180	15
181	2
182	236
183	194
184	46
185	9
186	0
190	0
191	1
192	2
193	0
194	8
195	1
196	2
197	8
198	1
199	2
205	2
207	83
208	12
209	6
210	18
211	6
212	0
215	0
224	2
225	2
226	37
227	7
228	7
229	1
230	0
239	7
240	4
241	20
242	4
243	1
254	0
261	3
263	0
271	0
282	31
283	5
284	3
285	2
296	2
298	0
299	12
300	3
313	1
316	2
327	15
328	5
329	0
331	3
332	0
345	31
346	7
347	3
349	0
359	2
360	138
361	25
362	9
363	1
