Mass Spectrum: 2,6-Dimethylpiperidine-1-thiocarboxylic acid 2-[1-[2-pyridyl]ethylidene]hydrazide
Formula: C15H22N4S
CAS: 71555-30-1
Molecular weight: 290
m/z	intensity
41	363
42	439
43	204
44	390
45	36
46	8
47	20
48	9
49	95
50	190
51	447
52	295
53	97
54	59
55	409
56	217
57	65
58	167
59	31
60	56
61	12
62	17
63	37
64	26
65	45
66	13
67	44
68	48
69	72
70	357
71	81
72	44
73	9
74	16
75	27
76	55
77	81
78	999
79	37
80	42
81	41
82	32
83	90
84	110
85	16
86	73
87	5
88	10
89	3
90	5
91	19
92	63
93	20
94	8
95	22
96	35
97	50
98	568
99	64
100	1
101	3
102	3
103	6
104	174
105	99
106	40
107	9
108	2
109	3
110	22
111	175
112	406
113	110
114	26
116	12
117	27
118	5
119	48
120	23
121	355
122	32
123	8
124	3
125	0
126	1
127	2
128	1
129	1
130	1
131	3
132	1
133	6
134	6
135	3
136	5
137	43
138	11
139	3
140	8
141	1
142	2
143	0
144	4
145	1
146	1
148	81
149	36
150	10
151	6
152	1
153	0
154	1
155	1
156	26
157	4
158	1
159	0
160	0
161	0
162	1
163	2
164	1
165	1
167	0
168	0
169	11
170	6
171	8
172	1
173	0
174	0
175	0
176	34
177	188
178	33
179	11
180	1
187	0
191	1
196	1
205	0
212	1
229	0
257	4
258	0
261	6
262	0
275	1
276	0
289	2
290	27
291	5
292	1
