Mass Spectrum: 3,5-Diisopropoxy-1,1,1,7,7,7-hexamethyl-3,5-bis(trimethylsiloxy)tetrasiloxane
Formula: C18H50O7Si6
CAS: 71579-67-4
Molecular weight: 546
m/z	intensity
41	54
43	278
44	18
45	49
59	34
73	999
74	87
75	46
87	12
147	53
325	22
327	152
328	43
329	29
341	51
342	20
343	11
415	44
416	20
417	12
429	12
447	37
448	17
449	11
487	50
488	23
489	18
531	14
