Mass Spectrum: 2-Methyl-2-phenyl-1,3,6-trioxa-2-silacyclooctane
Formula: C11H16O3Si
CAS: 71573-84-7
Molecular weight: 224
m/z	intensity
41	140
44	300
45	260
51	150
61	120
77	550
78	210
87	110
91	640
103	999
104	150
105	450
117	180
123	220
129	190
137	130
147	850
165	800
179	90
191	30
209	510
