Mass Spectrum: Cyclooctane, 6-aza-2,2-dimethyl-1,3-dioxa-6-phenyl-2-sila-
Formula: C12H19NO2Si
CAS: 71573-91-6
Molecular weight: 237
m/z	intensity
41	190
42	170
51	120
59	120
75	130
77	300
89	240
91	140
104	350
105	999
117	130
119	150
131	180
160	30
178	90
192	70
222	150
237	300
