Mass Spectrum: (+)-Benzyl(cis-2-[hydroxymethyl]cyclohexyl)amine
Formula: C14H21NO
CAS: 71581-92-5
Molecular weight: 219
m/z	intensity
41	76
42	20
43	25
44	11
45	4
47	4
48	2
49	19
50	6
51	29
52	8
53	20
54	20
55	41
56	26
57	16
58	3
59	1
62	2
63	14
64	6
65	109
66	9
67	27
68	16
69	11
70	8
71	2
72	10
73	0
74	1
75	1
76	2
77	34
78	15
79	32
80	8
81	13
82	9
83	7
84	36
86	21
88	4
89	24
90	12
91	999
92	86
93	10
94	3
95	8
96	3
97	2
98	4
100	2
102	0
103	3
104	23
105	13
106	253
107	67
108	36
109	3
110	7
111	3
112	1
115	4
116	6
117	9
118	20
119	4
120	48
121	4
124	0
126	1
127	1
128	43
129	6
130	9
131	3
132	77
133	47
134	4
141	0
142	8
143	2
144	14
146	842
147	97
148	5
156	1
158	7
159	3
160	33
161	4
162	18
163	5
172	3
174	5
176	345
177	39
178	3
180	0
181	0
186	3
188	51
189	23
190	22
191	3
200	2
202	33
203	5
216	0
218	38
219	351
220	74
221	8
