Mass Spectrum: 3-Hydroxy-1a,3,6,6-tetramethylhexahydro-2-oxacyclopropa[d]naphthalen-5-one
Formula: C14H22O3
CAS: 71596-91-3
Molecular weight: 238
m/z	intensity
26	5
27	55
28	35
29	45
30	2
31	6
37	2
38	5
39	76
40	21
41	183
42	29
43	999
44	30
45	16
46	1
50	6
51	23
52	13
53	63
54	13
55	85
56	26
57	48
58	39
59	37
60	2
61	2
62	2
63	7
64	3
65	30
66	10
67	71
68	22
69	70
70	19
71	27
72	5
73	2
74	2
75	2
76	3
77	69
78	18
79	72
80	13
81	112
82	27
83	20
84	8
85	14
86	3
87	2
89	3
90	2
91	75
92	16
93	155
94	46
95	248
96	159
97	85
98	14
99	12
100	2
101	2
102	2
103	7
104	4
105	44
106	9
107	62
108	17
109	137
110	24
111	62
112	10
113	6
114	3
115	9
116	3
117	12
118	5
119	49
120	13
121	186
122	48
123	129
124	71
125	56
126	7
127	3
128	7
129	8
130	6
131	9
132	3
133	16
134	8
135	93
136	98
137	60
138	44
139	143
140	18
141	8
142	11
143	6
144	7
145	76
146	13
147	27
148	11
149	26
150	6
151	10
152	12
153	27
154	9
155	5
156	2
157	2
158	2
159	35
160	8
161	9
162	11
163	183
164	35
165	23
166	3
167	16
168	19
169	4
170	3
171	2
172	2
173	2
174	1
175	2
176	3
177	83
178	22
179	8
180	54
181	377
182	50
183	6
184	1
185	2
186	4
187	13
188	2
189	1
191	4
192	12
193	3
194	3
195	47
196	7
197	2
202	6
203	4
204	2
205	54
206	8
207	1
210	2
218	2
219	2
220	60
221	15
222	2
223	2
238	6
239	2
