Mass Spectrum: Benzofurazan, 4-bromo-6-methyl-
Formula: C7H5BrN2O
CAS: 7159-74-2
Molecular weight: 212
m/z	intensity
26	80
27	160
28	60
30	380
37	170
38	180
39	290
49	90
50	410
51	500
52	210
53	50
61	120
62	110
63	180
64	100
74	110
75	340
76	550
77	110
78	110
87	60
88	70
102	250
103	999
104	100
105	50
133	180
182	160
184	150
212	360
214	360
