Mass Spectrum: Benzeneacetic acid, 2-(methoxycarbonyl)-, methyl ester
Formula: C11H12O4
CAS: 716-43-8
Molecular weight: 208
m/z	intensity
41	61
42	16
43	75
44	41
45	153
46	2
47	2
48	0
49	6
50	83
51	204
52	44
53	56
54	3
55	53
56	11
57	40
59	130
60	6
61	24
62	105
63	326
64	89
65	231
66	17
67	17
68	6
73	22
74	25
75	25
76	32
77	430
78	126
79	160
80	6
83	20
84	2
85	21
88	34
89	510
90	476
91	999
92	82
93	15
94	5
97	19
98	5
102	6
103	37
104	57
105	446
106	57
107	36
108	3
109	14
110	5
111	11
112	3
113	3
115	13
116	6
117	26
118	678
119	594
120	47
128	4
129	7
130	1
131	24
132	26
133	830
134	602
135	444
136	61
137	11
138	1
143	6
144	9
145	26
147	15
148	794
149	629
150	189
151	22
152	5
153	3
154	11
155	4
160	2
161	8
162	562
163	148
164	36
165	11
166	3
175	6
176	657
177	320
178	39
179	10
180	3
192	6
193	38
194	5
195	1
207	4
208	36
209	13
210	2
211	1
