Mass Spectrum: 2,2-Dibromo-1-methyl-1-(chloromethyl)cyclopropane
Formula: C5H7Br2Cl
CAS: 71600-39-0
Molecular weight: 260
m/z	intensity
27	375
28	44
29	28
30	1
31	9
32	10
33	2
35	13
36	27
37	91
38	200
39	999
40	186
41	777
42	30
43	4
44	2
45	1
47	9
48	13
49	145
50	227
51	380
52	90
53	136
54	9
55	32
56	3
57	3
59	1
60	9
61	43
62	48
63	85
65	827
66	260
67	149
68	8
69	2
70	2
71	4
72	16
73	43
74	7
75	75
76	412
77	32
78	133
79	60
80	25
81	60
82	22
83	6
84	4
85	9
86	10
87	23
88	5
89	10
90	3
91	12
92	3
93	20
94	2
95	10
97	1
99	8
100	8
101	136
102	57
103	45
104	28
105	100
106	15
107	101
108	4
109	6
111	2
112	6
113	6
114	3
116	4
117	14
118	4
119	37
120	13
121	26
122	10
127	5
128	2
129	11
130	7
131	171
132	43
133	167
134	36
135	3
139	1
140	2
141	4
142	2
143	7
144	3
145	32
146	11
147	29
148	9
149	1
153	23
154	2
155	32
156	2
157	8
158	3
160	6
161	1
162	3
163	1
165	9
166	11
167	84
168	19
169	107
170	13
171	27
172	9
173	4
174	5
175	2
180	4
181	209
182	15
183	276
184	53
185	70
186	69
187	5
188	31
189	3
197	7
198	2
199	13
200	2
201	7
202	1
207	1
209	2
211	513
212	32
213	883
214	40
215	420
216	15
218	1
220	1
224	1
225	2
226	2
227	4
228	1
229	2
233	1
245	2
247	6
249	4
260	5
262	12
263	1
264	8
266	2
