Mass Spectrum: 1-Methylamino-1-deoxy-d-glucitol-N-thiocarboxylic acid 2-[1-[2-pyridyl]ethylidene]hydrazide
Formula: C15H24N4O5S
CAS: 71605-30-6
Molecular weight: 372
m/z	intensity
41	84
42	150
43	303
44	595
45	158
46	23
47	49
48	21
51	44
52	181
53	39
54	13
55	57
56	70
57	85
58	114
59	41
60	72
61	86
62	30
63	46
64	41
65	44
66	20
67	18
68	17
69	39
70	28
71	35
72	39
73	191
74	292
75	78
76	61
77	126
78	999
79	281
80	24
81	12
82	14
83	14
84	12
85	31
86	103
87	28
88	39
89	11
90	6
91	33
92	61
93	41
94	17
95	19
96	12
97	21
98	24
99	28
100	14
101	9
102	13
103	18
104	251
105	124
106	141
107	25
108	10
109	8
110	8
111	14
112	7
113	4
114	3
115	9
116	79
117	57
118	12
119	52
120	5
121	88
122	22
123	15
124	90
125	11
126	2
128	16
129	12
130	10
131	9
132	6
133	20
134	76
135	17
136	8
137	18
138	5
139	4
141	3
142	2
143	2
144	19
145	4
146	16
147	7
148	148
149	97
150	21
151	8
152	3
153	2
159	6
160	14
161	3
162	8
163	4
164	36
165	16
167	3
174	2
176	125
177	638
178	91
179	35
180	4
185	3
190	2
192	7
194	4
195	3
196	19
197	4
205	2
206	4
209	2
210	8
219	6
220	4
223	6
237	2
256	7
258	4
338	2
372	2
