Mass Spectrum: Gazaniolide
Formula: C15H18O2
CAS: 71609-02-4
Molecular weight: 230
m/z	intensity
26	7
27	80
29	51
37	3
38	12
39	275
40	55
41	247
42	14
43	26
50	44
51	149
52	66
53	331
54	39
55	79
62	21
63	91
64	30
65	220
66	63
67	162
68	72
69	29
70	15
74	12
75	28
76	24
77	397
78	132
79	250
80	28
81	73
82	20
86	9
87	13
88	6
89	49
90	10
91	606
92	70
93	88
94	25
95	88
96	115
97	37
100	4
101	8
102	30
103	131
104	58
105	999
106	269
107	250
108	65
109	37
115	268
116	80
117	210
118	69
119	579
120	164
121	57
123	78
124	15
127	69
128	214
129	189
130	63
131	191
132	270
133	166
134	37
135	19
139	19
140	6
141	107
142	73
143	297
144	88
145	127
146	36
147	28
148	20
151	60
152	32
153	42
154	66
155	60
156	85
157	115
158	67
159	132
160	37
162	47
165	10
167	38
168	14
169	261
170	46
171	48
172	17
173	66
174	33
175	18
179	49
180	8
182	9
183	22
184	30
185	68
186	13
187	73
188	29
197	179
198	26
199	8
201	78
202	41
203	11
212	22
213	10
215	344
216	54
229	10
230	638
231	108
232	12
