Mass Spectrum: Benzoic acid, 3-(2,3-dimethoxy-4,5-methylenedioxyphenyl)propyl ester
Formula: C19H20O6
CAS: 71600-84-5
Molecular weight: 344
m/z	intensity
26	8
27	46
29	36
30	6
31	7
38	4
39	71
40	2
41	57
42	9
43	19
44	15
45	23
50	29
51	153
52	39
53	58
54	7
55	43
56	3
57	16
59	10
63	20
64	27
65	106
66	52
67	52
68	8
69	40
70	4
71	11
75	13
76	37
77	933
78	125
79	175
80	21
81	29
82	3
83	34
89	19
90	11
91	74
92	30
93	52
94	42
95	26
96	4
102	3
103	37
104	16
105	999
106	135
107	89
108	16
109	40
111	7
117	18
118	14
119	35
120	24
121	117
122	43
123	22
129	17
131	44
132	13
133	48
134	44
135	85
136	17
137	56
138	4
144	2
145	10
146	16
147	28
148	13
149	187
150	56
151	54
152	31
153	10
159	8
161	65
162	35
163	61
164	25
165	108
166	32
167	14
175	88
176	21
177	846
178	103
179	79
180	252
181	66
182	15
190	10
191	146
192	177
193	69
194	53
195	626
196	79
197	11
205	8
206	3
207	481
208	98
209	82
210	9
221	21
222	759
223	99
224	13
239	31
314	35
315	3
343	2
344	918
345	193
346	32
