Mass Spectrum: Benzisothiazol-3(2H)-one, 2-(2,3,5,6-tetrafluoro-4-pyridyl)-, 1,1-dioxide
Formula: C12H4F4N2O3S
CAS: 71612-08-3
Molecular weight: 332
m/z	intensity
33	4
34	3
35	1
37	21
38	74
39	83
40	30
41	1
42	1
43	2
44	8
45	17
46	10
47	7
48	16
50	812
51	58
52	23
53	15
54	7
55	7
57	11
58	6
59	0
60	1
61	10
62	40
63	212
64	226
65	16
66	2
67	0
69	80
70	45
71	9
72	3
73	22
74	196
75	219
76	999
77	69
78	4
79	0
81	20
82	13
83	9
84	7
85	1
86	3
87	3
88	49
90	61
92	485
93	47
94	6
95	40
96	46
97	6
98	4
99	5
100	78
101	6
102	22
104	412
105	42
107	18
108	8
109	2
110	2
111	1
112	12
114	12
115	1
116	1
117	9
119	114
120	34
121	6
122	0
123	1
124	2
125	4
126	23
127	1
128	0
130	5
131	3
132	1
133	5
134	1
135	0
136	7
137	2
138	12
139	2
140	1
143	1
144	4
145	20
146	2
147	2
148	0
149	3
150	24
151	5
152	74
153	7
154	5
155	2
156	0
157	1
159	0
161	2
162	1
163	4
164	19
165	2
166	9
167	2
168	7
169	5
170	6
171	8
172	0
175	15
176	28
177	5
182	1
183	8
184	4
186	0
187	1
188	2
189	3
190	43
191	5
192	26
193	11
194	28
195	15
196	1
198	1
200	6
201	30
202	7
203	1
206	0
207	3
208	0
209	0
212	3
213	5
214	8
215	0
219	12
220	22
221	72
222	8
223	3
225	1
226	0
227	1
232	1
233	7
234	0
237	1
238	3
239	65
240	228
241	29
242	2
248	2
249	7
250	3
252	292
253	37
254	2
264	0
266	1
268	398
269	52
270	4
284	0
313	11
314	1
315	0
332	933
333	129
334	49
335	6
336	0
