Mass Spectrum: 2(1H)-Pyridinone, 5-(acetyloxy)-5,6-dihydro-1-(1-oxo-3-phenylpropyl)-
Formula: C16H17NO4
CAS: 71627-22-0
Molecular weight: 287
m/z	intensity
43	270
65	70
77	120
78	120
79	50
84	80
91	520
92	50
95	120
96	530
97	80
103	130
104	999
105	350
106	30
131	730
132	170
134	30
156	90
227	380
228	70
287	50
288	10
