Mass Spectrum: Ethanone, 1-[2-(4-ethoxyphenyl)-4-methyl-5-thiazolyl]-
Formula: C14H15NO2S
CAS: 71633-86-8
Molecular weight: 261
m/z	intensity
43	999
44	460
45	290
71	440
72	210
114	130
119	180
120	170
148	110
149	50
177	20
190	120
218	600
219	80
232	60
233	110
246	390
247	60
261	650
262	100
