Mass Spectrum: D-Galactose, O-(phenylmethyl)oxime, 2,3,4,5,6-pentabenzoate
Formula: C48H39NO11
CAS: 71641-46-8
Molecular weight: 805
m/z	intensity
77	640
91	780
105	999
122	200
195	38
269	38
280	28
281	27
294	9
311	19
323	31
331	29
350	50
426	23
428	28
453	8
537	12
593	360
684	8
775	4
805	14
