Mass Spectrum: D-Arabinitol, pentabenzoate
Formula: C40H32O10
CAS: 71641-43-5
Molecular weight: 672
m/z	intensity
77	680
105	999
122	150
202	77
269	290
281	41
282	51
294	14
306	29
311	40
323	75
324	72
331	75
403	240
428	160
537	25
550	5
551	5
