Mass Spectrum: D-Mannose, O-(phenylmethyl)oxime, 2,3,4,5,6-pentabenzoate
Formula: C48H39NO11
CAS: 71641-47-9
Molecular weight: 805
m/z	intensity
77	450
91	620
105	999
122	130
195	21
269	18
280	13
281	14
294	4
311	10
323	16
331	16
350	34
426	12
428	14
537	6
593	220
684	4
775	6
805	5
