Mass Spectrum: D-Glucose, O-(phenylmethyl)oxime, 2,3,4,5,6-pentabenzoate
Formula: C48H39NO11
CAS: 71641-45-7
Molecular weight: 805
m/z	intensity
77	600
91	720
105	999
122	170
195	27
269	29
280	17
281	17
294	9
311	14
323	21
331	22
350	34
426	14
428	18
453	10
537	8
593	280
683	4
775	3
805	4
