Mass Spectrum: D-Arabinose, O-(phenylmethyl)oxime, 2,3,4,5-tetrabenzoate
Formula: C40H33NO9
CAS: 71641-38-8
Molecular weight: 671
m/z	intensity
77	710
91	850
105	999
122	170
195	39
201	28
216	50
269	18
280	27
281	27
294	60
403	16
459	530
473	3
549	8
550	8
641	5
671	14
