Mass Spectrum: Hexanoic acid, 2-ethyl-, 1,1-dimethylethyl ester
Formula: C12H24O2
CAS: 71648-27-6
Molecular weight: 200
m/z	intensity
41	183
42	17
43	34
55	45
56	93
57	999
58	48
59	19
70	13
73	12
87	14
88	53
99	43
127	55
144	11
145	35
