Mass Spectrum: L-Mannose, 6-deoxy-, O-(phenylmethyl)oxime, 2,3,4,5-tetrabenzoate
Formula: C41H35NO9
CAS: 71641-40-2
Molecular weight: 685
m/z	intensity
77	720
91	800
105	999
122	220
195	30
215	19
230	72
280	23
281	58
282	14
283	12
308	53
331	40
417	28
473	600
519	3
563	6
564	13
655	4
685	16
