Mass Spectrum: D-Ribose, O-(phenylmethyl)oxime, 2,3,4,5-tetrabenzoate
Formula: C40H33NO9
CAS: 71641-37-7
Molecular weight: 671
m/z	intensity
77	730
91	850
105	999
122	210
195	47
201	22
216	74
269	19
280	29
281	33
294	76
403	21
459	700
549	7
550	12
641	5
671	13
