Mass Spectrum: D-Xylose, O-(phenylmethyl)oxime, 2,3,4,5-tetrabenzoate
Formula: C40H33NO9
CAS: 71641-36-6
Molecular weight: 671
m/z	intensity
77	700
91	870
105	999
122	140
195	39
201	15
216	51
269	15
280	25
281	26
294	57
403	22
459	600
473	2
549	7
550	6
641	5
671	8
