Mass Spectrum: L-Galactose, 6-deoxy-, O-(phenylmethyl)oxime, 2,3,4,5-tetrabenzoate
Formula: C41H35NO9
CAS: 71641-39-9
Molecular weight: 685
m/z	intensity
77	720
91	820
105	999
122	190
195	38
215	32
230	58
280	27
281	58
282	15
283	10
308	48
331	40
417	30
473	450
519	4
563	7
564	10
655	5
685	24
