Mass Spectrum: Ribitol, pentabenzoate
Formula: C40H32O10
CAS: 71658-20-3
Molecular weight: 672
m/z	intensity
77	300
105	999
122	30
202	34
269	140
281	16
282	22
294	5
306	14
311	12
323	38
324	30
331	36
403	83
428	60
537	6
550	2
551	1
