Mass Spectrum: 1,11-Hexadecadiyne
Formula: C16H26
CAS: 71673-32-0
Molecular weight: 218
m/z	intensity
13	1
15	5
18	6
26	12
27	298
28	71
29	248
30	4
32	1
37	3
38	16
39	383
40	106
41	898
42	74
43	203
44	1
49	1
50	23
51	89
52	109
53	359
54	462
55	587
56	53
57	73
58	4
62	4
63	21
64	8
65	162
66	83
67	999
68	156
69	153
70	10
71	6
72	1
75	2
77	259
78	79
79	821
80	214
81	780
82	105
83	40
84	1
88	1
89	3
91	588
92	142
93	557
94	151
95	361
96	77
97	12
98	1
102	1
103	12
105	304
106	76
107	190
108	69
109	55
110	17
111	2
115	6
116	4
117	28
119	269
120	69
121	128
122	26
123	15
124	2
127	1
128	2
129	3
130	2
131	18
133	300
134	81
135	52
136	15
137	6
138	1
141	1
145	8
147	149
148	40
149	26
150	4
159	7
161	230
162	31
163	6
164	1
173	1
175	110
176	21
177	5
189	46
190	6
191	1
203	9
217	1
