Mass Spectrum: Obscurinervan-21-one, 6,7-didehydro-15,16-dimethoxy-22-methyl-, (22.alpha.)-
Formula: C24H28N2O5
CAS: 7168-67-4
Molecular weight: 424
m/z	intensity
60	279
61	48
63	16
65	64
66	32
67	274
68	193
69	999
70	241
71	709
72	48
73	193
74	16
76	16
77	112
78	80
79	145
80	80
81	354
82	161
83	370
84	145
85	419
86	32
87	32
89	16
90	16
91	80
92	64
93	96
94	80
95	161
96	96
97	274
98	80
100	32
101	21
102	16
103	32
104	37
105	64
106	69
107	155
108	53
109	91
110	48
111	129
112	48
113	75
114	16
115	48
116	32
117	48
118	37
119	59
120	69
121	53
122	26
123	53
124	32
125	59
126	26
127	53
128	26
129	53
130	43
131	59
132	59
133	64
134	43
135	32
136	26
137	43
138	21
139	32
140	26
141	53
142	21
143	32
144	48
145	43
146	59
147	37
148	26
149	43
150	16
151	16
152	21
153	26
154	37
155	43
156	48
157	26
158	43
159	32
160	43
161	86
162	32
163	21
164	16
165	16
166	32
167	32
168	48
169	91
170	37
171	21
172	26
173	21
174	26
175	59
176	59
177	43
178	16
179	10
180	16
181	16
182	26
183	43
184	21
185	21
186	43
187	26
188	26
189	21
190	48
191	26
192	16
193	10
194	10
195	16
196	16
197	21
198	145
199	26
200	26
201	21
202	37
203	16
204	64
205	37
206	10
207	10
208	10
209	10
210	10
211	16
212	59
213	16
214	26
215	16
216	86
217	26
218	21
219	16
220	10
221	10
222	5
223	5
225	10
227	10
228	21
229	21
230	37
231	16
232	21
233	10
235	5
236	5
237	10
238	10
239	10
240	10
241	10
242	10
243	10
244	123
245	32
246	59
247	16
248	5
249	5
250	5
251	5
252	5
253	5
254	5
255	5
256	10
257	5
258	21
259	16
260	32
261	10
262	5
263	5
264	5
265	5
266	5
267	5
268	5
269	5
270	5
271	10
272	10
273	10
274	16
275	5
279	5
280	5
281	5
288	10
295	5
296	5
302	5
307	5
309	5
321	5
323	5
335	5
337	5
349	10
365	5
381	5
409	543
410	155
411	43
412	10
423	69
424	473
425	139
426	37
