Mass Spectrum: 1-Deoxy-2,3:5,6-di-O-isopropylidene-4-O-methyl-D-glucitol
Formula: C13H24O5
CAS: 71696-46-3
Molecular weight: 260
m/z	intensity
17	10
18	55
27	9
28	60
29	17
31	11
39	7
40	3
41	39
42	15
43	197
44	8
45	48
55	43
56	8
57	78
58	57
59	265
60	11
61	40
67	32
68	7
69	29
70	13
71	192
72	86
73	166
74	13
75	15
83	35
85	100
86	77
87	123
95	167
96	13
97	39
99	20
100	21
101	705
102	65
103	8
112	11
113	26
114	31
115	999
116	62
117	12
127	77
128	43
129	10
131	5
142	9
143	11
144	35
145	37
153	5
155	10
157	30
158	4
159	15
170	36
171	5
173	3
184	27
185	4
187	167
188	17
202	8
228	10
229	10
245	234
246	29
247	5
260	5
