Mass Spectrum: (R*,R*)-5-Hydroxy-4-methyl-3-heptanone
Formula: C8H16O2
CAS: 71699-36-0
Molecular weight: 144
m/z	intensity
26	159
27	424
29	945
30	40
31	50
37	11
38	20
39	72
40	22
41	113
42	69
43	69
44	28
50	13
51	11
52	2
53	31
54	7
55	33
56	39
57	999
58	202
59	40
67	11
68	5
69	56
70	67
71	22
75	18
85	16
86	170
87	16
97	35
98	3
113	5
115	41
126	29
127	3
129	2
