Mass Spectrum: 5-(1-Bromo-1-methylethyl)-2-methylcyclohex-2-enone
Formula: C10H15BrO
CAS: 71697-85-3
Molecular weight: 230
m/z	intensity
26	11
27	154
28	11
29	54
36	2
37	3
38	16
39	350
40	52
41	394
42	29
43	174
44	6
45	3
50	28
51	83
52	49
53	216
54	477
55	91
56	8
57	23
58	66
59	8
60	5
61	3
62	8
63	26
64	7
65	78
66	36
67	167
68	30
69	106
70	7
71	3
74	7
75	5
76	3
77	126
78	35
79	227
80	63
81	253
82	999
83	60
84	4
89	6
90	8
91	225
92	54
93	270
94	57
95	378
96	30
97	8
102	2
103	12
104	5
105	61
106	109
107	475
108	483
109	677
110	53
111	3
115	20
116	6
117	30
118	3
119	12
120	7
121	34
122	42
123	117
124	11
131	3
132	6
133	26
134	7
135	338
136	35
137	2
148	3
149	10
150	442
151	754
152	85
153	6
187	2
189	2
230	16
231	5
232	15
233	5
