Mass Spectrum: (R*,S*)-5-Hydroxy-4-methyl-3-heptanone
Formula: C8H16O2
CAS: 71699-35-9
Molecular weight: 144
m/z	intensity
26	119
27	516
29	999
30	38
31	52
36	6
37	13
38	21
39	50
40	10
41	76
42	51
43	50
44	14
45	31
50	8
51	13
52	8
53	32
54	9
55	52
56	39
57	945
58	180
59	49
67	6
68	3
69	28
70	46
71	12
75	6
85	11
86	180
87	11
96	2
97	25
98	2
115	15
126	21
127	3
129	3
