Mass Spectrum: 1H-Inden-2-ol, 2,3-dihydro-1-methoxy-
Formula: C10H12O2
CAS: 71720-52-0
Molecular weight: 164
m/z	intensity
14	2
15	16
17	1
18	3
26	4
27	23
28	20
29	31
30	6
31	25
32	1
37	4
38	11
39	59
40	7
41	13
42	2
43	11
44	3
45	23
46	2
49	4
50	32
51	91
52	22
53	12
54	1
55	21
56	1
57	4
58	3
59	5
60	4
61	9
62	19
63	54
64	13
65	70
66	12
67	3
68	1
69	1
71	1
72	1
73	3
74	17
75	17
76	21
77	181
78	95
79	46
80	4
81	2
82	1
83	1
84	1
85	2
86	6
87	7
88	4
89	49
90	35
91	174
92	19
93	28
94	2
97	1
98	3
99	1
100	1
101	7
102	29
103	257
104	999
105	222
106	15
107	4
111	1
113	3
114	4
115	59
116	28
117	17
118	17
119	49
120	9
121	530
122	52
123	4
124	1
128	1
129	2
130	3
131	221
132	242
133	110
134	20
135	17
136	17
137	2
145	2
146	13
147	10
148	3
149	10
150	5
161	1
162	1
163	9
164	78
165	9
166	2
