Mass Spectrum: 2,6-Di-tert-butyl-4-(3-mercaptopropyl)phenol
Formula: C17H28OS
CAS: 71728-85-3
Molecular weight: 280
m/z	intensity
34	65
36	4
37	7
39	111
41	401
43	116
45	50
47	128
49	7
50	6
51	30
53	52
55	110
57	999
59	12
61	53
63	18
64	12
65	38
66	9
67	24
69	30
70	7
71	13
72	6
73	12
75	11
77	62
78	15
79	43
80	34
81	12
82	3
83	9
85	9
86	8
87	14
89	12
91	79
92	9
93	21
94	31
95	9
96	3
97	5
99	2
101	7
102	7
103	15
104	6
105	38
107	24
108	7
109	4
111	3
112	2
113	2
114	2
115	52
116	16
117	25
118	6
119	24
120	5
121	17
122	2
123	3
125	3
126	2
127	14
128	41
129	39
130	13
131	27
133	38
134	7
135	9
137	3
139	8
140	5
141	21
142	14
143	17
144	9
145	27
146	9
147	37
148	6
149	19
150	3
151	3
152	5
153	9
154	5
155	9
156	7
157	11
158	5
159	15
160	6
161	21
162	6
163	21
164	4
165	4
166	2
167	17
168	4
169	5
170	3
171	9
172	4
173	11
174	4
175	16
176	4
177	4
179	4
181	4
183	2
185	4
186	2
187	9
188	4
189	19
190	4
191	3
193	2
195	3
201	4
203	12
204	13
205	7
206	2
207	4
209	44
210	6
211	3
215	3
216	2
217	9
218	6
219	117
220	20
221	4
223	16
224	5
229	2
231	15
232	4
233	6
235	2
237	2
245	2
246	7
247	4
248	2
249	6
261	2
263	14
265	212
266	36
267	12
268	2
277	3
278	9
280	205
281	38
282	11
283	2
