Mass Spectrum: Benzene, 1-isocyano-4-methyl-
Formula: C8H7N
CAS: 7175-47-5
Molecular weight: 117
m/z	intensity
50	90
51	100
52	50
61	40
62	76
63	157
64	76
65	50
89	281
90	351
91	100
116	839
117	999
118	90
