Mass Spectrum: 5-Chloro-2-phenyl-2H-pyrazol-3-ol
Formula: C9H7ClN2O
CAS: 71762-42-0
Molecular weight: 194
m/z	intensity
25	32
26	96
27	153
28	150
29	212
30	16
31	14
34	11
35	9
36	11
37	85
38	198
39	299
40	56
41	91
42	32
43	83
44	68
45	15
47	25
48	20
49	59
50	394
51	831
52	194
53	176
54	86
55	72
56	69
57	52
58	11
59	16
60	212
61	190
62	222
63	233
64	233
65	199
66	50
67	46
68	153
69	50
70	18
71	26
72	14
73	60
74	240
75	211
76	208
77	999
78	300
79	64
80	19
81	60
82	29
83	32
84	15
85	36
86	41
87	41
88	192
89	153
90	109
91	378
92	202
93	51
94	15
95	16
96	9
97	41
98	19
99	22
100	21
101	34
102	98
103	338
104	504
105	191
106	44
107	40
108	75
109	19
110	11
111	22
112	18
113	15
114	35
115	31
116	206
117	43
118	20
119	25
120	21
121	10
123	18
124	21
125	14
126	14
127	20
128	15
129	32
130	147
131	217
132	211
133	38
134	14
135	7
136	20
137	45
138	42
139	37
140	27
141	20
142	33
143	10
144	9
149	27
150	43
151	25
152	20
153	12
154	10
155	16
157	12
158	144
159	158
160	24
165	221
166	39
167	84
168	23
193	54
194	919
195	155
196	347
197	74
198	8
