Mass Spectrum: 1-Deoxy-1-iodo-D-arabitol, 2,3:4,5-di-O-isopropylidene-
Formula: C11H19IO4
CAS: 71769-39-6
Molecular weight: 342
m/z	intensity
26	3
27	53
29	27
30	0
31	36
39	34
41	67
42	34
43	999
44	25
45	8
47	0
48	0
51	1
52	1
53	13
54	14
55	84
56	14
57	55
58	26
59	173
60	6
61	29
62	0
63	1
65	1
66	2
69	15
70	6
71	28
72	66
73	66
74	3
75	0
79	1
80	0
81	17
82	61
83	36
84	2
85	71
86	9
87	2
88	0
91	0
92	0
93	4
95	2
96	0
97	22
98	4
99	85
100	19
101	746
102	43
103	4
104	0
109	2
110	2
111	1
112	0
113	9
114	4
115	6
116	0
117	1
118	0
121	0
122	1
125	0
126	3
127	4
128	1
129	1
130	0
131	6
132	0
139	3
140	7
141	25
142	4
143	15
144	1
145	0
153	2
154	0
155	36
156	42
157	255
158	21
159	27
160	2
161	0
167	5
168	0
169	9
170	0
171	3
172	0
176	0
179	0
181	15
182	1
183	145
184	5
185	109
186	4
187	0
195	0
196	0
197	4
199	0
201	0
209	90
210	5
211	4
213	63
214	2
215	8
216	1
217	10
218	1
224	0
225	4
226	0
227	7
228	0
237	2
239	1
241	148
242	9
243	1
253	0
267	7
268	0
269	68
270	5
271	0
283	2
285	0
297	0
313	0
327	593
328	62
329	8
330	0
342	0
