Mass Spectrum: l-Alanine ethylamide, (S)-
Formula: C5H12N2O
CAS: 71773-95-0
Molecular weight: 116
m/z	intensity
15	7
17	8
18	1
26	1
27	15
28	23
29	22
30	12
31	2
39	1
40	2
41	6
42	25
43	17
44	999
45	35
46	5
55	4
56	8
57	1
58	2
70	1
71	1
72	5
73	2
74	1
83	2
101	3
116	17
117	4
