Mass Spectrum: 2-Cyclopenten-1-one, 3-methoxy-5-methyl-
Formula: C7H10O2
CAS: 7180-60-1
Molecular weight: 126
m/z	intensity
39	156
40	63
41	164
42	31
43	34
44	43
45	5
50	5
51	17
52	2
53	60
54	14
55	52
56	17
59	104
65	37
66	43
67	80
68	98
69	445
70	26
79	2
81	23
82	14
83	60
84	11
85	20
94	2
95	26
96	5
97	17
98	115
99	5
111	999
112	63
125	135
126	693
127	46
