Mass Spectrum: 1H-Benz[e]inden-3-ol, 2,3,3a,4,5,9b-hexahydro-3a-methyl-7-[(1-phenyl-1H-tetrazol-5-yl)oxy]-, [3S-(3.alpha.,3a.alpha.,9b.beta.)]-
Formula: C21H22N4O2
CAS: 71805-93-1
Molecular weight: 362
m/z	intensity
107	350
117	999
118	750
146	250
173	220
201	160
217	130
218	100
275	220
334	630
362	110
