Mass Spectrum: Hexanoic acid, tetradecyl ester
Formula: C20H40O2
CAS: 71801-23-5
Molecular weight: 312
m/z	intensity
25	5
26	41
27	209
28	21
29	331
30	8
31	15
36	6
37	8
38	19
39	162
40	41
41	672
42	238
43	999
44	45
45	28
50	8
51	12
52	6
53	51
54	99
55	595
56	298
57	479
58	34
59	3
60	98
61	69
63	7
65	9
66	9
67	93
68	128
69	386
70	278
71	361
72	28
73	95
74	11
75	3
78	6
79	16
80	9
81	45
82	138
83	325
84	166
85	122
86	7
87	41
88	3
89	13
95	23
96	61
97	245
98	119
99	418
100	35
101	17
102	2
108	3
109	6
110	19
111	119
112	75
113	6
114	6
115	17
116	105
117	981
118	75
119	3
124	11
125	55
126	48
127	11
129	3
130	3
138	7
139	19
140	29
141	3
143	6
152	3
153	11
154	17
156	7
166	4
167	9
168	65
169	9
172	12
195	3
196	119
197	19
241	17
242	3
