Mass Spectrum: 1,4-Pentanedione, 2,2-dimethyl-1-(4-methylphenyl)-
Formula: C14H18O2
CAS: 71821-99-3
Molecular weight: 218
m/z	intensity
25	1
26	3
27	26
28	10
29	25
30	3
31	5
35	1
36	1
37	2
38	5
39	60
40	9
41	57
42	12
43	322
44	12
45	6
49	1
50	9
51	21
52	5
53	9
54	2
55	14
56	16
57	6
58	8
59	3
60	2
61	2
62	7
63	28
64	10
65	124
66	8
67	4
68	2
69	7
71	4
72	2
73	2
74	3
75	4
76	3
77	9
78	2
79	3
80	1
81	2
82	4
83	11
84	2
85	2
86	2
87	2
88	2
89	27
90	21
91	301
92	26
93	4
94	1
95	1
96	1
97	1
98	5
99	11
100	1
101	1
102	1
103	3
104	1
105	12
106	1
107	2
108	3
109	1
110	1
111	1
113	1
114	1
115	6
116	3
117	4
118	34
119	999
120	123
121	13
122	1
127	2
128	4
129	3
130	1
131	3
132	1
133	7
134	3
135	2
136	2
137	1
141	2
142	1
143	3
144	1
145	3
146	1
147	1
148	1
149	1
157	1
158	1
159	6
160	1
161	10
162	2
163	1
167	1
169	1
174	1
175	2
176	1
177	3
185	2
186	1
187	1
199	1
201	1
202	1
203	1
204	1
218	32
219	6
220	1
