Mass Spectrum: Phenol, 2,2'-methylenebis-, dibenzoate
Formula: C27H20O4
CAS: 71840-29-4
Molecular weight: 408
m/z	intensity
51	50
77	350
78	30
105	999
106	80
286	50
303	130
304	30
390	70
408	10
