Mass Spectrum: Phenol, 2-[[2-(benzoyloxy)-5-methylphenyl]methyl]-4-methyl-
Formula: C22H20O3
CAS: 71840-30-7
Molecular weight: 332
m/z	intensity
51	30
77	250
78	20
91	20
105	999
106	80
165	20
166	20
195	20
209	20
227	230
228	40
314	120
315	30
332	100
333	20
