Mass Spectrum: 3a,6-Epoxy-3aH-isoindole, 1,2,3,6,7,7a-hexahydro-2-(4-methoxyphenyl)-6-methyl-
Formula: C16H19NO2
CAS: 71840-22-7
Molecular weight: 257
m/z	intensity
65	40
67	30
77	60
79	30
91	40
92	40
95	999
96	70
118	30
119	40
120	80
134	60
135	50
147	50
148	40
162	30
163	210
164	30
241	50
257	190
