Mass Spectrum: Phenol, 2-[[2-(benzoyloxy)-3-(1,1-dimethylethyl)-5-methylphenyl]methyl]-6-(1,1-dimethylethyl)-4-methyl-
Formula: C30H36O3
CAS: 71840-28-3
Molecular weight: 444
m/z	intensity
41	30
57	70
77	180
105	999
106	80
161	70
177	40
265	30
339	110
340	30
426	390
427	130
444	70
