Mass Spectrum: Propanoic acid, 2-methyl-, 2-(1,1-dimethylethyl)-6-[[3-(1,1-dimethylethyl)-2-hydroxy-5-methylphenyl]methyl]-4-methylphenyl ester
Formula: C27H38O3
CAS: 71840-27-2
Molecular weight: 410
m/z	intensity
39	80
41	300
42	60
43	999
44	40
55	90
56	30
57	450
69	30
71	410
77	60
79	50
91	160
93	50
105	210
106	30
107	40
115	70
116	40
117	60
118	40
119	140
121	210
127	30
128	50
129	30
131	40
133	190
134	30
135	90
137	60
145	70
146	40
147	90
148	50
149	200
159	60
161	630
162	120
163	30
164	340
165	60
173	30
175	100
176	40
177	690
178	90
191	40
192	30
227	40
265	100
266	30
267	40
280	50
282	70
283	120
284	30
323	40
324	30
339	180
340	390
341	90
377	30
392	550
393	160
394	30
410	340
411	100
