Mass Spectrum: Phosphonothioic acid, methyl-, O-[2-[bis(1-methylethyl)amino]ethyl]-, O-ethyl ester
Formula: C11H26NO2PS
CAS: 71840-25-0
Molecular weight: 267
m/z	intensity
41	385
42	360
43	606
44	430
56	148
70	540
72	398
84	252
85	106
86	70
95	139
98	44
112	165
114	999
115	78
123	20
127	344
128	141
136	9
137	14
139	74
148	10
154	8
163	8
166	7
167	42
180	9
182	10
192	8
196	9
210	8
218	5
222	5
224	17
226	4
238	5
252	36
253	5
254	5
266	8
268	17
