Mass Spectrum: 3a,6-Epoxy-3aH-isoindole, 1,2,3,6,7,7a-hexahydro-6-methyl-2-phenyl-
Formula: C15H17NO
CAS: 71840-20-5
Molecular weight: 227
m/z	intensity
41	60
43	90
65	40
67	30
77	140
79	30
91	80
95	999
96	90
104	60
105	30
106	40
132	30
133	170
227	220
228	40
