Mass Spectrum: Chlorocyclohexyldimethylsilane
Formula: C8H17ClSi
CAS: 71864-47-6
Molecular weight: 176
m/z	intensity
27	4
29	7
39	19
41	38
42	10
43	10
50	5
51	10
52	8
53	46
54	94
55	86
56	5
57	8
58	5
59	31
60	10
61	4
63	126
64	8
65	174
66	33
67	388
68	31
69	20
71	12
72	3
73	7
74	2
75	15
76	3
77	36
78	56
79	172
80	59
81	284
82	972
83	104
84	6
85	3
88	3
89	7
91	16
92	36
93	999
94	76
95	324
96	33
97	40
98	6
101	4
103	10
104	3
105	36
107	12
112	4
117	8
119	73
120	5
121	27
122	5
125	11
130	3
133	40
134	5
135	19
140	4
141	10
143	4
147	3
149	5
160	4
161	40
162	7
163	14
176	121
177	17
178	42
179	6
