Mass Spectrum: 2-Pyrazolin-5(4H)-one, 3-(4-hydroxyphenylamino)-1-phenyl-
Formula: C15H13N3O2
CAS: 7186-70-1
Molecular weight: 267
m/z	intensity
29	96
30	8
31	44
32	15
34	1
35	0
36	1
37	6
38	30
39	166
40	52
41	127
42	204
43	133
44	13
45	13
46	1
47	0
48	0
50	56
51	202
52	95
53	89
54	21
55	57
56	32
57	124
59	34
60	20
61	13
62	17
63	103
64	169
65	336
66	34
67	21
68	32
69	30
70	29
71	60
73	20
74	12
75	21
77	591
78	122
79	107
80	94
81	29
82	10
83	17
84	13
85	35
86	3
87	5
88	16
89	42
90	28
91	180
92	95
93	112
94	21
95	6
96	5
97	13
98	9
99	10
100	2
101	4
102	15
103	19
104	79
105	78
106	80
107	241
108	999
109	102
110	9
111	7
112	5
113	6
114	2
115	9
116	10
117	8
118	12
119	28
120	33
121	5
122	1
123	1
125	14
126	3
127	4
128	2
129	5
130	4
132	114
133	285
134	447
135	45
136	3
137	1
138	1
139	1
140	1
141	3
142	1
143	1
144	2
145	1
146	2
147	19
148	3
149	1
150	0
151	1
152	1
153	1
154	2
155	1
156	2
157	3
160	776
161	86
162	14
163	2
164	0
165	1
166	1
167	2
168	1
169	1
170	0
171	2
172	0
173	0
174	1
175	3
176	2
177	0
178	0
179	0
180	0
181	1
182	1
183	1
184	0
185	0
186	0
188	0
189	0
190	4
191	0
192	0
193	0
194	0
195	0
196	2
197	0
198	0
199	0
201	0
203	0
204	0
206	0
207	0
208	1
209	1
210	0
212	0
221	0
222	0
223	0
224	1
225	0
226	0
228	0
236	0
238	1
239	0
240	0
241	0
249	0
250	0
251	1
252	0
267	476
268	71
269	8
270	0
