Mass Spectrum: 2-Furanacrylonitrile
Formula: C7H5NO
CAS: 7187-01-1
Molecular weight: 119
m/z	intensity
12	1
13	1
14	4
15	1
25	4
26	15
27	17
28	13
29	7
36	6
37	53
38	86
39	128
40	17
41	41
42	12
43	2
44	6
45	18
46	1
48	2
49	9
50	32
51	44
52	76
53	8
54	1
55	2
59	16
60	5
61	28
62	46
63	199
64	322
65	74
66	5
67	1
68	7
70	1
73	2
74	4
75	6
76	7
77	2
78	3
79	13
80	22
81	3
86	3
87	9
88	13
89	6
90	366
91	176
92	121
93	16
94	1
117	1
118	5
119	999
120	85
121	7
