Mass Spectrum: 1-(Methoxymethyl)-1H-benzotriazole
Formula: C8H9N3O
CAS: 71878-80-3
Molecular weight: 163
m/z	intensity
35	0
37	37
38	57
39	90
40	11
41	10
42	5
43	4
45	999
46	23
47	2
49	11
50	96
51	160
52	49
53	6
54	2
55	2
56	0
57	1
58	0
60	2
61	13
62	29
63	84
64	67
65	79
66	11
67	1
68	0
69	0
71	0
73	4
74	34
75	26
76	57
77	378
78	82
79	41
80	9
81	1
82	0
83	1
84	0
85	1
86	1
87	3
88	4
89	7
90	54
91	53
92	51
93	17
94	1
95	1
99	0
100	0
102	7
103	9
104	113
105	26
106	110
107	32
108	6
109	0
116	1
117	2
118	10
119	7
120	28
121	2
132	37
133	18
134	20
135	2
163	233
164	22
165	2
166	0
