Mass Spectrum: Bromoacetic acid, 2-tetradecyl ester
Formula: C16H31BrO2
CAS: 71881-05-5
Molecular weight: 334
m/z	intensity
20	2
25	7
26	28
27	266
28	40
29	508
30	6
31	14
35	6
36	16
37	5
38	10
39	197
40	47
41	833
42	390
43	999
44	82
45	52
49	8
50	13
51	13
52	6
53	62
54	96
55	667
56	370
57	568
58	53
59	14
60	2
61	3
63	6
65	9
66	7
67	101
68	73
69	404
70	306
71	262
72	17
73	6
74	2
77	37
78	6
79	20
80	13
81	55
82	111
83	313
84	172
85	139
86	12
87	6
91	6
92	5
93	55
94	13
95	46
96	69
97	267
98	119
99	38
100	4
101	3
105	4
107	3
109	10
110	31
111	157
112	82
113	21
114	4
120	4
121	210
122	11
123	200
124	22
125	79
126	46
127	13
129	3
135	9
136	5
137	7
138	9
139	31
140	35
141	10
142	2
152	8
153	20
154	31
155	6
165	61
166	7
167	64
168	27
169	8
181	3
182	3
193	2
194	4
195	6
196	129
197	40
198	6
210	5
211	3
213	14
255	9
