Mass Spectrum: Bromoacetic acid, 2-octyl ester
Formula: C10H19BrO2
CAS: 71881-03-3
Molecular weight: 250
m/z	intensity
21	1
22	2
25	3
26	23
27	176
28	42
29	232
30	8
31	11
35	15
36	88
37	6
38	28
39	193
40	44
41	610
42	305
43	588
44	36
45	132
46	5
47	2
49	3
50	27
51	38
52	38
53	73
54	62
55	711
56	518
57	621
58	110
59	30
60	13
61	14
62	4
63	8
64	2
65	20
66	27
67	82
68	98
69	377
70	766
71	496
72	32
73	18
74	4
75	6
76	3
77	48
78	20
79	77
80	15
81	49
82	124
83	538
84	336
85	78
86	12
87	107
88	7
89	4
90	2
91	18
92	16
93	135
94	21
95	126
96	15
97	234
98	21
99	4
100	3
101	6
102	8
103	3
104	3
105	10
106	2
107	3
108	2
109	8
110	16
111	35
112	999
113	336
114	26
115	19
116	3
117	4
118	2
119	2
120	30
121	990
122	53
123	962
124	23
125	2
127	8
128	11
129	152
130	13
131	2
132	2
133	4
134	2
135	8
136	14
137	5
138	19
139	52
140	5
141	40
145	2
147	3
149	2
151	1
152	2
153	4
154	2
156	6
157	4
158	1
160	4
162	1
164	12
165	576
166	40
167	568
168	28
169	3
170	1
171	164
172	19
173	2
177	1
179	3
180	3
181	3
182	2
191	3
193	14
194	2
195	9
196	1
198	4
200	2
206	2
