Mass Spectrum: 5-Hexadecyne
Formula: C16H30
CAS: 71899-37-1
Molecular weight: 222
m/z	intensity
23	1
25	2
26	10
27	156
28	22
29	240
30	5
34	0
37	4
38	4
39	122
40	27
41	531
42	69
43	441
44	11
45	0
46	2
47	1
48	3
49	2
50	8
51	24
52	42
53	123
54	769
55	613
56	93
57	128
58	6
61	0
62	2
63	11
64	3
65	50
66	53
67	860
68	264
69	303
70	37
71	29
73	1
75	5
76	4
77	74
78	32
79	160
80	69
81	999
82	397
83	168
84	18
85	8
86	0
88	1
89	4
90	2
91	64
92	19
93	69
94	34
95	605
96	263
97	72
98	5
102	2
103	4
104	6
105	24
106	7
107	24
108	8
109	156
110	79
111	15
112	2
115	5
116	3
117	10
118	2
119	5
120	2
121	15
122	3
123	78
124	26
125	3
126	1
127	1
128	3
129	5
130	1
131	3
133	4
134	1
135	7
136	1
137	73
138	50
139	4
140	0
141	2
143	1
149	2
150	1
151	21
152	21
153	4
155	0
161	1
163	1
165	27
166	7
177	1
178	0
179	3
180	1
191	1
193	1
202	1
218	2
220	2
222	1
