Mass Spectrum: Phenol, 2-[[2-(benzoyloxy)phenyl]methyl]-
Formula: C20H16O3
CAS: 71893-14-6
Molecular weight: 304
m/z	intensity
51	60
77	310
78	30
105	999
106	80
107	40
115	30
152	50
153	30
181	30
199	140
200	40
286	90
304	90
