Mass Spectrum: Bis-S-triazolo[4,3-b,3',4'-f]pyridazine, 3-phenyl-
Formula: C12H8N6
CAS: 7190-97-8
Molecular weight: 236
m/z	intensity
50	138
51	175
52	88
63	62
76	181
77	156
78	250
103	999
104	100
236	750
237	120
