Mass Spectrum: Bis-S-triazolo[4,3-b,3',4'-f]pyridazine, 3,3'-diphenyl-
Formula: C18H12N6
CAS: 7190-99-0
Molecular weight: 312
m/z	intensity
43	10
45	13
50	65
51	80
52	26
62	14
63	48
64	13
76	140
77	100
78	16
89	12
102	11
103	999
104	91
126	13
152	10
156	20
206	13
207	13
283	22
284	29
312	435
313	113
