Mass Spectrum: Benzenethanamine, 4,5-dibenzyloxy-2-fluoro-.beta.-hydroxy-
Formula: C22H22FNO3
CAS: 71924-68-0
Molecular weight: 367
m/z	intensity
41	24
42	14
43	29
44	18
45	8
50	18
51	32
52	10
53	5
55	13
56	6
57	17
58	29
59	1
60	3
61	4
62	8
63	29
64	4
65	117
66	7
67	4
68	1
69	8
70	7
71	8
72	1
73	4
74	3
75	2
76	2
77	17
78	5
79	7
80	3
81	5
82	1
83	14
84	6
85	2
86	4
87	3
89	27
91	999
92	70
93	5
95	2
96	3
97	8
98	7
99	5
100	12
104	4
105	12
106	7
107	7
108	3
111	8
113	3
115	2
118	7
119	8
120	1
125	1
127	2
128	3
133	3
139	4
140	7
141	6
147	1
149	4
152	4
153	3
155	4
156	9
157	20
158	2
161	1
162	1
165	4
166	4
167	4
168	1
169	7
179	2
180	1
181	113
182	18
183	3
190	3
199	1
206	1
212	5
213	1
217	1
227	2
229	1
240	3
241	1
243	4
245	50
246	18
247	71
248	14
249	1
256	6
257	6
258	7
259	1
262	4
276	11
277	4
278	2
330	11
331	2
336	21
337	135
338	34
339	6
347	47
348	14
349	7
350	5
367	11
368	4
