Mass Spectrum: Benzaldehyde, 4,5-dibenzyloxy-2-fluoro-
Formula: C21H17FO3
CAS: 71924-67-9
Molecular weight: 336
m/z	intensity
41	12
42	0
43	3
44	5
45	0
49	0
50	8
51	17
52	4
53	1
55	1
56	1
57	3
62	5
63	20
64	2
65	111
66	5
68	0
69	7
70	6
71	1
73	0
74	0
75	2
76	1
77	10
78	2
79	3
81	3
82	1
83	3
84	0
85	0
86	0
87	0
89	27
90	9
91	999
92	65
93	2
95	0
97	16
98	4
99	0
103	0
105	4
106	1
107	1
109	1
110	0
112	0
115	1
126	2
128	0
133	1
134	0
137	1
138	0
139	2
141	3
149	0
152	1
157	1
159	2
165	2
166	1
167	7
168	2
169	0
170	2
171	1
178	1
179	2
180	3
181	49
182	7
183	0
187	0
199	1
215	0
216	1
217	1
227	2
228	0
243	7
244	4
245	151
246	23
247	3
262	0
308	0
318	1
336	90
337	21
338	3
