Mass Spectrum: N-(Methoxycarbonylmethyl)-N-ethylnitrosamine
Formula: C5H10N2O3
CAS: 71922-05-9
Molecular weight: 146
m/z	intensity
28	180
29	290
30	370
31	480
41	290
42	430
43	999
44	560
45	710
55	120
56	500
59	250
60	80
68	80
69	80
70	330
71	140
74	80
85	330
86	250
87	600
88	330
101	250
102	520
111	50
116	130
118	120
146	230
