Mass Spectrum: Mefruside
Formula: C13H19ClN2O5S2
CAS: 7195-27-9
Molecular weight: 382
m/z	intensity
41	28
42	108
43	537
44	86
45	18
55	9
64	12
75	16
83	13
85	999
86	64
95	4
108	10
110	24
112	10
128	4
142	2
157	1
158	1
174	1
175	2
205	0
207	1
218	10
220	3
239	0
241	0
251	0
252	0
265	0
270	0
282	3
284	1
305	0
311	0
313	0
325	4
327	2
367	0
369	0
