Mass Spectrum: Acetic acid, trichloro-, 2-phenylethyl ester
Formula: C10H9Cl3O2
CAS: 71965-07-6
Molecular weight: 266
m/z	intensity
26	5
27	13
28	1
29	3
30	1
35	5
36	32
37	2
38	11
39	28
40	3
41	7
43	1
44	18
47	7
48	2
49	3
50	18
51	53
52	16
53	6
55	1
61	2
62	6
63	23
64	6
65	68
66	5
73	1
74	7
75	6
76	8
77	115
78	57
79	82
80	5
82	20
83	8
84	13
85	5
86	2
87	2
89	22
90	12
91	501
92	40
93	4
101	2
102	13
103	109
104	999
105	840
106	59
107	4
110	16
111	2
112	10
113	1
114	2
115	3
116	2
117	38
118	2
119	37
120	5
121	12
122	2
123	1
125	1
131	9
132	1
137	2
139	22
140	6
141	8
142	2
167	10
168	1
169	3
195	2
217	5
218	2
219	4
220	1
