Mass Spectrum: 1-tert-Butyl-1-hydridotetrachlorocyclotriphosphazene
Formula: C4H10Cl4N3P3
CAS: 71982-89-3
Molecular weight: 333
m/z	intensity
41	183
42	8
43	31
44	2
45	2
46	36
55	15
56	25
57	999
58	41
59	2
62	2
66	11
67	1
68	2
69	0
76	10
77	1
78	5
80	4
81	1
82	4
83	0
84	1
90	2
91	3
97	4
99	1
101	15
103	11
111	20
112	3
113	5
114	1
115	1
116	23
117	1
118	15
125	2
126	1
127	4
128	2
129	1
136	3
146	31
148	21
150	3
160	2
161	50
162	4
163	33
164	2
165	3
170	5
172	4
181	2
182	1
183	2
184	1
191	1
193	0
195	3
196	1
197	13
198	1
199	10
200	0
201	2
205	2
206	35
207	4
208	26
209	2
210	4
216	1
218	1
220	1
231	6
233	10
235	3
237	2
239	2
240	50
241	3
242	116
243	3
244	81
245	1
246	16
248	1
261	0
262	0
263	1
264	1
265	0
266	0
267	0
275	10
276	233
277	266
278	300
279	316
280	166
281	158
282	31
283	30
284	2
285	2
298	53
299	3
300	54
301	4
302	16
303	1
304	1
318	1
320	1
322	1
333	38
334	2
335	48
336	3
337	23
338	1
339	4
