Mass Spectrum: Androstane-3,7-dione, 17-(acetyloxy)-, (5.alpha.,17.beta.)-
Formula: C21H30O4
CAS: 71995-59-0
Molecular weight: 346
m/z	intensity
27	100
28	65
29	182
30	10
31	22
39	102
40	32
41	423
42	54
43	999
44	45
45	34
49	11
50	6
51	22
52	18
53	139
54	33
55	425
56	45
57	96
58	11
59	8
60	14
61	9
63	10
64	5
65	70
66	30
67	253
68	115
69	161
70	24
71	63
72	9
73	18
75	10
76	7
77	178
78	55
79	279
80	132
81	323
82	135
83	142
84	195
85	69
86	16
87	11
88	10
89	13
90	11
91	372
92	89
93	398
94	269
95	366
96	109
97	136
98	58
99	44
100	16
101	92
102	13
103	31
104	23
105	286
106	98
107	266
108	210
109	270
110	264
111	148
112	24
113	13
114	14
115	40
116	25
117	89
118	62
119	197
120	85
121	259
122	234
123	152
124	73
125	39
126	23
127	16
128	23
129	55
130	30
131	125
132	83
133	311
134	162
135	190
136	88
137	96
138	38
139	15
140	8
141	24
142	24
143	77
144	52
145	112
146	68
147	185
148	142
149	76
150	113
151	99
152	30
153	13
154	8
155	22
156	28
157	71
158	199
159	125
160	47
161	272
162	65
163	125
164	32
165	19
166	20
167	6
168	5
169	23
170	14
171	50
172	42
173	51
174	64
175	78
176	599
177	129
178	25
179	139
180	20
181	14
182	10
183	33
184	14
185	39
186	17
187	61
188	19
189	20
190	16
191	10
192	464
193	82
194	116
195	36
196	14
197	57
198	38
199	55
200	19
201	25
202	5
203	10
204	2
205	899
206	155
207	39
208	27
209	59
210	40
211	60
212	30
213	45
214	36
215	80
216	64
217	40
218	49
219	27
220	19
221	27
222	22
223	25
224	24
225	38
226	24
227	47
228	31
229	46
230	32
231	34
232	26
233	27
234	83
235	59
236	119
237	43
238	24
239	33
240	25
241	29
242	31
243	45
244	23
245	50
246	26
247	54
248	25
249	21
250	26
251	25
252	25
253	91
254	33
255	35
256	26
257	71
258	64
259	35
260	43
261	52
262	24
263	21
267	35
268	142
269	54
270	26
271	180
272	50
273	20
274	22
275	25
276	29
277	16
278	17
285	56
286	742
287	177
288	36
289	31
290	22
302	26
303	44
304	74
305	26
306	18
328	22
329	21
345	3
346	293
347	83
348	22
349	5
