Mass Spectrum: S-Phenyl thiobenzoate oxime
Formula: C13H11NOS
CAS: 720-57-0
Molecular weight: 229
m/z	intensity
39	80
64	30
65	39
66	80
77	181
78	29
84	70
109	89
110	999
111	60
112	30
121	297
122	40
123	40
124	19
229	89
230	30
