Mass Spectrum: 4-Methoxybenzhydrol
Formula: C14H14O2
CAS: 720-44-5
Molecular weight: 214
m/z	intensity
26	0
27	3
28	0
29	2
30	0
31	0
37	0
38	2
39	11
40	1
41	5
42	0
43	2
44	0
45	0
50	7
51	22
52	4
53	3
54	0
55	3
56	1
57	3
58	0
59	0
60	0
61	0
62	2
63	9
64	9
65	13
66	9
67	1
68	0
69	2
70	0
71	1
72	0
73	0
74	2
75	3
76	7
77	91
78	16
79	21
80	1
81	2
82	1
83	1
84	0
85	1
86	0
87	1
88	0
89	2
90	0
91	10
92	15
93	5
94	21
95	2
96	0
97	1
98	1
99	0
100	0
101	0
102	2
103	0
104	1
105	91
106	7
107	10
108	49
109	999
110	74
111	7
112	0
113	0
114	0
115	6
116	0
117	0
118	0
119	0
120	0
121	1
122	0
123	0
124	0
125	0
126	1
127	2
128	3
129	1
130	0
131	0
132	0
133	0
134	0
135	75
136	18
137	68
138	5
139	2
140	0
141	3
142	1
143	0
144	0
145	0
147	0
148	0
149	2
150	0
151	2
152	10
153	13
154	5
155	1
156	0
157	0
158	0
159	0
163	0
164	0
165	8
166	3
167	3
168	1
169	1
170	1
171	0
172	0
177	0
178	0
179	0
180	0
181	4
182	3
183	10
184	1
185	1
186	0
191	0
195	1
196	1
197	19
198	3
199	0
212	0
213	20
214	68
215	8
216	0
