Mass Spectrum: DL-Arginine
Formula: C6H14N4O2
CAS: 7200-25-1
Molecular weight: 174
m/z	intensity
41	375
42	752
43	999
44	522
45	136
54	99
55	37
56	502
57	155
58	231
59	119
68	171
69	467
70	578
75	80
84	60
85	94
86	87
87	130
97	29
99	76
110	29
111	93
112	125
114	65
137	66
138	65
