Mass Spectrum: 2,4-Heptadien-6-ynal, (E,E)-
Formula: C7H6O
CAS: 7200-04-6
Molecular weight: 106
m/z	intensity
49	13
50	119
51	179
52	119
53	2
55	2
61	7
62	13
63	29
73	7
74	34
75	12
76	15
77	123
78	197
79	15
105	999
106	199
107	14
