Mass Spectrum: Propanedioic acid, [(4-ethoxyphenyl)hydrazono]-
Formula: C11H12N2O5
CAS: 72012-97-6
Molecular weight: 252
m/z	intensity
108	999
109	350
121	300
135	220
136	300
137	340
162	50
203	130
206	50
252	110
