Mass Spectrum: 1,4-Dithiepan-2-one, 3-methyl-
Formula: C6H10OS2
CAS: 72018-97-4
Molecular weight: 162
m/z	intensity
26	36
27	120
28	52
29	18
33	5
34	5
35	11
37	4
38	9
39	95
40	12
41	485
42	29
43	21
44	8
45	403
46	339
47	85
48	14
49	4
53	14
54	2
55	45
56	36
57	18
58	75
59	331
60	374
61	72
62	13
63	3
64	76
65	3
66	9
67	16
68	7
69	107
70	7
71	34
72	30
73	113
74	999
75	80
76	36
77	7
78	29
79	5
80	2
81	2
83	2
85	20
86	2
87	149
88	13
89	8
91	8
92	46
93	8
94	4
95	2
97	2
99	3
100	6
101	42
102	2
103	5
105	39
106	522
107	28
108	37
109	2
117	2
119	568
120	28
121	37
122	2
133	15
134	709
135	46
136	51
137	3
160	5
162	645
163	34
164	41
