Mass Spectrum: Propanoic acid, 2,2,2-trichloro-1-methylethyl ester
Formula: C6H9Cl3O2
CAS: 72037-39-9
Molecular weight: 218
m/z	intensity
35	2
36	6
37	5
38	10
39	40
40	4
41	1
42	7
43	28
45	26
47	7
48	2
49	18
50	0
51	5
53	1
54	0
55	7
57	999
58	23
60	4
61	3
62	2
63	4
64	0
65	1
71	0
72	1
73	10
74	6
75	54
77	11
78	0
82	6
83	20
84	3
85	13
86	0
87	2
91	0
95	0
96	0
97	1
99	0
101	52
102	2
103	0
107	0
109	66
110	9
111	41
112	5
113	7
114	0
117	6
118	0
119	5
121	1
123	0
125	0
126	0
128	0
130	0
144	3
145	11
146	3
147	11
148	1
149	3
151	0
182	2
183	5
184	1
185	3
186	0
187	0
