Mass Spectrum: 1,4-Ethano-1H-pyrido[3,2-b][1,5]benzodiazepine, 10-benzoyl-2,3,4,4a,5,10,11,11a-octahydro-
Formula: C21H23N3O
CAS: 72031-22-2
Molecular weight: 333
m/z	intensity
33	1
39	29
41	76
42	76
43	29
45	115
46	36
51	55
53	16
54	58
55	111
56	54
58	53
60	2
63	3
65	34
67	26
68	30
69	43
70	32
71	13
73	4
74	0
75	3
77	325
78	19
79	10
80	21
82	150
83	46
84	43
89	3
90	6
91	19
92	42
94	23
96	167
97	159
98	7
102	5
105	999
107	14
108	29
109	56
111	469
112	23
113	1
116	5
117	22
118	20
119	86
120	16
122	138
123	7
124	0
127	0
128	4
130	30
131	33
132	18
133	14
134	1
136	2
137	1
139	0
140	0
143	16
145	125
147	14
148	1
151	0
154	1
156	12
157	13
158	11
159	14
160	2
164	5
165	1
166	0
167	1
168	2
169	10
171	35
172	9
173	13
174	0
179	1
181	0
183	4
184	4
185	14
186	5
193	0
194	1
195	6
196	2
197	2
198	3
199	4
200	6
201	1
207	3
211	3
212	4
213	8
214	1
217	2
221	4
222	7
223	31
225	41
226	6
228	33
229	6
231	0
232	0
233	52
234	7
235	2
236	2
237	6
238	13
239	1
247	4
248	6
249	18
251	410
252	46
253	7
259	2
261	1
263	3
264	30
265	40
266	3
272	4
273	2
274	0
276	73
277	41
278	22
279	14
280	0
290	6
291	3
292	1
293	0
303	0
304	3
318	8
329	1
330	4
331	6
333	206
334	44
335	4
