Mass Spectrum: Pentanamide, 2-(dimethylamino)-N-[7-(hydroxyphenylmethyl)-3-(1-methylethyl)-5,8-dioxo-2-oxa-6,9-diazabicyclo[10.2.2]hexadeca-10,12,14,15-tetraen-4-yl]-3-methyl-
Formula: C31H42N4O5
CAS: 72047-69-9
Molecular weight: 550
m/z	intensity
77	56
85	168
97	103
105	63
106	57
107	32
114	999
120	31
135	104
177	8
190	18
329	4
331	3
342	2
353	1
394	4
401	3
444	10
493	15
507	0
535	2
550	2
