Mass Spectrum: Norpluvine diacetate
Formula: C20H23NO5
CAS: 7204-07-1
Molecular weight: 357
m/z	intensity
43	999
45	24
47	23
48	11
49	128
50	13
51	78
52	18
53	44
54	17
55	27
56	4
57	6
59	4
60	13
61	4
62	4
63	28
64	13
65	68
66	19
67	58
68	13
69	7
70	3
71	4
73	1
74	3
75	9
76	15
77	98
78	40
79	37
80	23
81	9
82	9
84	104
86	52
87	3
88	11
89	34
90	23
91	72
92	14
93	16
94	39
95	30
96	10
97	7
98	5
99	2
100	1
101	7
102	22
103	31
104	18
105	24
106	19
107	25
108	12
109	10
110	2
111	14
113	5
114	7
115	56
116	16
117	34
118	39
119	35
120	15
121	9
122	9
123	4
124	2
125	1
126	8
127	28
128	37
129	18
130	30
131	27
132	27
133	12
134	8
135	18
136	8
137	45
138	6
139	15
140	11
141	30
142	18
143	16
144	15
145	13
146	15
147	36
148	8
149	10
150	16
151	21
152	26
153	24
154	55
155	31
156	39
157	17
158	8
159	7
160	6
161	12
162	12
163	9
164	6
165	20
166	19
167	51
168	40
169	45
170	42
171	17
172	14
173	6
174	7
175	8
176	6
177	18
178	23
179	20
180	48
181	31
182	67
183	49
184	32
185	35
186	18
187	6
188	5
189	5
190	9
191	13
192	17
193	28
194	67
195	30
196	54
197	30
198	63
199	33
200	21
201	7
202	3
203	1
204	5
205	4
206	10
207	12
208	18
209	39
210	95
211	80
212	56
213	37
214	39
215	10
216	10
217	4
219	1
220	8
221	12
222	92
223	33
224	78
225	26
226	75
227	43
228	417
229	394
230	80
231	8
232	2
234	3
235	1
236	21
237	21
238	39
239	58
240	60
241	27
242	63
243	16
244	10
245	2
250	11
251	4
252	108
253	33
254	513
255	232
256	89
257	16
258	3
259	1
268	3
270	144
271	161
272	51
273	9
274	1
282	1
284	4
285	2
286	3
294	6
295	5
296	136
297	60
298	94
299	18
300	3
312	2
313	2
314	41
315	27
316	5
355	1
356	67
357	456
358	158
359	25
360	3
