Mass Spectrum: Pentanamide, 2-(dimethylamino)-N-[7-(hydroxyphenylmethyl)-3-(1-methylethyl)-5,8-dioxo-2-oxa-6,9-diazabicyclo[10.2.2]hexadeca-12,14,15-trien-4-yl]-3-methyl-
Formula: C31H44N4O5
CAS: 72047-70-2
Molecular weight: 552
m/z	intensity
77	33
85	39
97	22
105	33
106	31
107	25
114	999
137	2
175	7
192	2
333	3
344	3
403	3
446	1
495	2
552	1
