Mass Spectrum: Pentanamide, N-[7-benzoyl-3-(1-methylethyl)-5,8-dioxo-2-oxa-6,9-diazabicyclo[10.2.2]hexadeca-12,14,15-trien-4-yl]-2-(dimethylamino)-3-methyl-
Formula: C31H42N4O5
CAS: 72047-71-3
Molecular weight: 550
m/z	intensity
77	62
85	123
97	58
105	124
107	92
114	999
135	17
155	35
175	23
190	3
195	11
218	6
353	4
446	2
493	11
507	4
521	1
535	1
550	12
