Mass Spectrum: Chloromethyl phenyl sulfide
Formula: C7H7ClS
CAS: 7205-91-6
Molecular weight: 158
m/z	intensity
26	2
27	17
28	1
36	6
37	10
38	21
39	80
45	300
46	23
47	16
49	26
50	69
51	156
52	13
57	9
58	12
59	4
61	10
62	16
63	30
64	4
65	128
66	15
69	84
70	6
71	9
73	9
74	37
75	21
76	16
77	145
78	33
79	73
80	5
81	14
82	21
83	9
84	5
89	5
91	19
93	3
97	6
108	33
109	150
110	28
111	8
121	31
122	7
123	999
124	88
125	54
126	2
158	447
159	37
160	161
161	12
162	6
