Mass Spectrum: Benzenemethanol, 2-(bicyclo[4.2.1]nona-2,4,7-trien-9-ylseleno)-.alpha.,.alpha.-diphenyl-, syn-
Formula: C28H24OSe
CAS: 72065-60-2
Molecular weight: 456
m/z	intensity
41	124
42	24
43	126
44	119
45	49
46	17
47	12
48	7
49	12
50	79
51	228
52	69
53	24
54	9
55	71
56	22
57	74
58	14
59	4
60	27
61	9
62	24
63	104
64	29
65	255
66	14
67	17
68	9
69	39
70	14
71	27
72	4
73	22
74	19
75	29
76	39
77	595
78	173
79	22
80	4
81	14
82	12
83	19
84	17
85	17
86	12
87	14
88	12
89	91
90	14
91	699
92	59
93	14
94	4
95	9
97	9
98	9
101	7
102	32
103	12
104	7
105	253
106	24
107	9
109	4
111	7
113	12
114	9
115	957
116	334
117	999
118	163
119	32
121	4
126	7
127	12
128	9
129	4
133	4
134	9
139	17
141	4
149	7
150	4
151	17
152	94
153	47
154	14
155	19
156	12
157	27
158	7
163	9
164	9
165	94
166	14
167	9
169	4
178	9
179	4
180	14
181	32
182	14
183	9
184	4
189	7
191	7
193	7
202	9
203	4
213	7
215	9
226	14
227	9
229	9
230	22
231	7
232	32
233	7
234	7
237	4
239	52
240	22
241	79
242	69
243	39
244	7
245	54
246	7
247	9
255	7
256	7
257	17
258	17
259	34
260	4
261	74
262	7
263	14
279	4
318	9
319	22
320	19
321	32
322	32
323	24
324	9
325	4
453	1
454	3
456	7
