Mass Spectrum: 2-Heptenoic acid, 4-methylphenyl ester
Formula: C14H18O2
CAS: 72060-10-7
Molecular weight: 218
m/z	intensity
39	55
40	20
41	110
42	10
43	40
44	9
50	10
51	20
52	15
53	42
54	12
55	690
56	21
65	12
67	9
68	28
69	27
77	75
78	20
79	40
81	90
82	30
83	40
91	25
107	90
108	120
109	16
110	270
111	999
112	90
218	122
219	20
