Mass Spectrum: 2-Hexenoic acid, 5-methyl-, 4-methylphenyl ester
Formula: C14H18O2
CAS: 72060-09-4
Molecular weight: 218
m/z	intensity
38	12
39	210
40	75
41	310
42	30
43	370
44	15
50	22
51	73
52	50
53	110
54	25
55	999
56	60
57	10
63	20
64	5
65	40
66	10
67	50
68	190
69	152
70	9
77	160
78	48
79	80
80	16
81	40
82	20
83	40
91	40
92	4
93	15
95	120
96	10
107	140
108	150
109	25
110	225
111	890
112	100
119	13
130	8
147	12
161	8
175	22
176	7
189	8
203	9
218	260
219	52
