Mass Spectrum: 2-Dodecene, (E)-
Formula: C12H24
CAS: 7206-13-5
Molecular weight: 168
m/z	intensity
22	4
26	7
27	192
28	5
29	394
30	2
33	1
35	4
36	9
37	11
38	7
39	178
40	21
41	678
42	304
43	860
44	36
45	4
46	3
50	4
51	17
52	13
53	80
54	129
55	999
56	744
57	588
58	23
65	13
66	9
67	124
68	113
69	630
70	571
71	171
72	7
77	10
78	10
79	14
80	7
81	39
82	69
83	356
84	228
85	60
89	4
91	4
93	3
95	13
96	35
97	214
98	91
99	8
105	3
110	8
111	57
112	36
113	5
125	19
126	12
139	7
166	3
168	69
169	11
