Mass Spectrum: 5-(Furan-3-yl)-2-methylpent-1-en-3-ol
Formula: C10H14O2
CAS: 72075-28-6
Molecular weight: 166
m/z	intensity
27	59
29	35
31	11
37	4
38	17
39	207
40	38
41	282
42	29
43	272
44	17
45	12
50	22
51	64
52	33
53	246
54	77
56	11
57	71
59	7
65	120
66	61
67	279
68	124
69	97
70	39
71	333
72	127
77	83
78	27
79	97
80	27
81	804
82	999
83	96
84	20
85	19
91	98
92	38
93	39
94	140
95	307
96	60
97	27
98	27
103	20
105	132
106	25
108	89
110	18
115	24
119	112
120	21
122	22
123	95
124	31
129	9
130	6
131	10
133	108
137	18
147	12
148	236
149	25
151	48
166	25
167	4
