Mass Spectrum: 1,2,3,4-Butanetetrol, tetraacetate, (R*,S*)-
Formula: C12H18O8
CAS: 7208-40-4
Molecular weight: 290
m/z	intensity
25	0
26	0
27	3
28	11
29	4
30	1
31	2
32	1
37	0
38	0
39	3
40	0
41	5
42	17
43	999
44	24
45	3
50	0
52	0
53	1
54	0
55	9
56	4
57	3
58	0
60	2
61	9
68	5
69	13
70	2
71	1
72	0
73	18
74	2
75	0
76	0
82	0
84	0
85	4
86	34
87	5
88	0
97	0
98	0
99	1
100	1
101	0
102	1
103	87
104	4
105	0
110	0
111	0
114	0
115	99
116	16
117	1
127	0
128	33
129	5
130	0
133	1
142	0
145	79
146	5
147	0
149	0
157	3
158	3
159	0
170	4
171	0
175	6
176	0
188	0
217	11
218	1
