Mass Spectrum: 5-Pyrimidinecarboxylic acid, hexahydro-5-(1-methylethyl)-2,4,6-trioxo-
Formula: C8H10N2O5
CAS: 72088-02-9
Molecular weight: 214
m/z	intensity
39	927
40	438
41	999
42	814
43	664
44	608
45	708
50	59
51	159
52	203
53	628
54	345
55	597
56	154
57	159
58	54
59	20
60	164
62	46
65	25
66	128
67	213
68	489
69	927
70	322
71	85
72	30
73	20
81	61
82	185
83	268
84	67
85	451
86	61
87	701
88	43
94	30
95	49
96	72
97	273
98	61
99	7
100	154
109	41
110	61
112	149
128	559
130	46
140	77
153	273
154	87
155	152
167	38
168	556
169	67
181	123
196	113
197	33
214	20
