Mass Spectrum: Pentanedioic acid, 2-methyl-, monomethyl ester
Formula: C7H12O4
CAS: 72088-36-9
Molecular weight: 160
m/z	intensity
27	350
29	340
39	200
41	370
42	180
43	390
45	230
53	80
54	90
55	999
56	410
57	170
58	80
59	630
60	90
69	210
73	130
74	80
82	60
83	400
84	60
85	50
87	100
88	360
99	200
100	610
101	660
114	490
115	60
128	340
129	410
142	110
