Mass Spectrum: Silanamine, N-[2,6-dimethyl-4-[(trimethylsilyl)oxy]phenyl]-1,1,1-trimethyl-
Formula: C14H27NOSi2
CAS: 72088-09-6
Molecular weight: 281
m/z	intensity
39	50
40	214
41	59
43	132
44	179
45	386
47	51
59	92
73	999
74	143
75	251
77	101
91	68
97	75
117	54
120	105
125	105
147	144
176	52
177	75
178	81
179	205
236	65
250	108
251	387
252	133
253	50
265	63
266	581
267	150
268	55
281	762
282	202
283	81
