Mass Spectrum: Kynurenine, 3TMS derivative
Formula: C19H36N2O3Si3
CAS: 72088-03-0
Molecular weight: 424
m/z	intensity
27	1
29	2
30	1
31	2
39	1
41	1
42	7
43	25
44	19
45	127
46	10
47	15
48	1
51	1
52	1
53	2
54	2
55	7
56	3
57	9
58	13
59	47
60	8
61	14
62	1
63	2
64	2
65	6
66	3
67	2
68	1
69	1
70	12
71	4
72	24
73	999
74	115
75	257
76	21
77	16
78	3
79	3
80	1
81	1
82	1
83	3
84	7
85	5
86	12
87	4
88	3
89	9
90	11
91	32
92	15
93	6
94	2
95	3
96	1
97	1
98	4
99	4
100	107
101	18
102	11
103	13
104	5
105	12
106	6
107	2
108	1
109	1
110	1
112	1
113	2
114	26
115	25
116	13
117	35
118	132
119	28
120	42
121	9
122	3
123	2
124	1
126	1
127	1
128	6
129	7
130	73
131	31
132	45
133	45
134	68
135	19
136	10
137	1
141	1
142	6
143	6
144	15
145	30
146	42
147	148
148	75
149	35
150	91
151	15
152	11
153	3
154	1
155	1
156	4
157	2
158	13
159	6
160	17
161	8
162	19
163	9
164	9
165	13
166	2
167	1
169	1
170	2
171	2
172	10
173	5
174	150
175	29
176	48
177	9
178	14
179	3
180	1
184	3
185	2
186	4
187	3
188	12
189	5
190	13
191	30
192	622
193	109
194	35
195	4
196	1
198	1
199	2
200	2
201	14
202	64
203	19
204	12
205	5
206	6
207	8
208	44
209	8
210	2
214	1
215	10
216	22
217	52
218	384
219	140
220	39
221	7
222	2
227	1
228	1
229	2
230	3
231	3
232	23
233	18
234	6
235	10
236	3
244	1
245	7
246	9
247	3
248	2
249	1
260	1
261	2
262	6
263	2
264	26
265	7
266	4
267	1
268	1
273	1
274	1
275	1
276	1
277	1
278	2
279	3
280	2
281	1
287	1
288	1
289	5
290	10
291	29
292	10
293	4
294	1
301	1
302	1
303	1
304	4
305	15
306	9
307	420
308	111
309	41
310	7
311	1
317	2
318	2
319	20
320	24
321	7
322	2
333	1
334	28
335	11
336	4
337	2
338	1
352	3
353	1
364	1
365	1
379	1
381	4
382	1
383	1
392	2
393	1
407	1
408	1
409	2
410	1
424	146
425	55
426	25
427	6
428	1
