Mass Spectrum: 2,2,2-Trifluoro-N-(2-phenylcyclopropyl)acetamide, trans-
Formula: C11H10F3NO
CAS: 721-60-8
Molecular weight: 229
m/z	intensity
39	80
51	80
63	60
69	120
77	120
78	80
79	60
89	50
91	120
103	90
104	70
105	80
115	440
116	999
117	70
132	90
138	50
160	60
229	80
