Mass Spectrum: 2,4-Pentanedione, 1,1,1-trifluoro-5-phenyl-
Formula: C11H9F3O2
CAS: 721-96-0
Molecular weight: 230
m/z	intensity
63	110
65	370
69	600
77	60
89	70
90	20
91	999
92	910
93	60
115	60
119	120
139	520
161	30
230	150
