Mass Spectrum: Ketone, phenyl 2-thiazolyl
Formula: C10H7NOS
CAS: 7210-75-5
Molecular weight: 189
m/z	intensity
40	20
44	50
50	70
51	200
57	40
58	160
74	20
76	30
77	619
78	50
84	20
105	999
106	90
161	519
162	50
163	20
188	50
189	320
190	50
191	20
