Mass Spectrum: 2-Thiazolecarboxylic acid, 4-methyl-, ethyl ester
Formula: C7H9NO2S
CAS: 7210-73-3
Molecular weight: 171
m/z	intensity
37	20
38	30
39	250
40	40
41	40
42	20
43	200
44	70
45	300
46	30
47	20
49	10
51	20
52	20
53	10
54	30
56	10
57	20
58	40
59	30
60	20
61	20
63	20
69	40
70	40
71	460
72	400
73	40
74	30
75	10
76	20
82	20
83	20
85	20
92	10
96	10
97	20
98	50
99	999
100	100
101	50
102	20
103	30
113	20
114	20
125	10
126	400
127	260
128	40
129	20
143	30
145	10
167	10
171	340
172	30
173	20
