Mass Spectrum: Benzenamine, N-(2,2-dimethylpropyl)-
Formula: C11H17N
CAS: 7210-81-3
Molecular weight: 163
m/z	intensity
40	13
41	100
42	13
43	20
50	30
51	120
52	26
53	16
54	6
55	16
56	6
57	33
63	13
64	10
65	40
66	13
74	10
75	6
76	10
77	200
78	43
79	53
91	10
92	10
93	20
104	33
105	26
106	999
107	113
117	6
118	6
130	6
132	10
133	6
148	40
163	106
164	20
