Mass Spectrum: Pentenoic acid, 4-[(trimethylsilyl)oxy]-, trimethylsilyl ester
Formula: C11H24O3Si2
CAS: 72101-11-2
Molecular weight: 260
m/z	intensity
40	78
41	4
42	4
43	62
44	69
45	158
47	42
53	20
55	25
57	6
58	22
59	42
61	19
69	4
72	23
73	999
74	91
75	202
76	12
77	42
85	15
99	6
101	23
113	51
115	4
117	8
127	39
128	43
131	12
133	28
143	786
144	112
145	36
147	289
148	42
149	30
173	5
216	32
217	73
218	19
245	37
246	6
260	84
261	16
