Mass Spectrum: N-Isopropoxy-2,2-dicarbomethoxyaziridine
Formula: C9H15NO5
CAS: 72109-43-4
Molecular weight: 217
m/z	intensity
40	27
41	231
42	63
43	684
44	53
45	225
46	19
54	116
55	74
56	23
57	48
58	21
59	356
60	17
84	25
85	86
86	74
87	21
99	42
100	46
101	19
111	63
112	158
113	999
114	143
115	164
116	13
143	545
144	158
145	263
146	25
175	137
176	17
185	61
186	38
187	19
217	4
