Mass Spectrum: Benzonitrile, 4-(4-butyl-1-cyclohexen-1-yl)-
Formula: C17H21N
CAS: 72114-68-2
Molecular weight: 239
m/z	intensity
27	155
29	165
35	14
36	38
39	349
41	582
42	59
43	39
50	38
51	65
52	46
53	154
54	111
55	401
56	26
63	68
64	17
65	66
67	298
68	569
69	133
74	13
75	35
76	55
77	141
78	49
79	151
80	56
81	248
82	51
83	12
89	173
90	48
91	42
93	39
94	43
95	269
96	52
101	54
102	117
103	151
104	54
107	20
109	16
110	51
113	32
114	38
115	263
116	999
117	126
121	20
127	76
128	162
129	599
130	394
131	46
140	168
141	69
142	385
143	133
144	45
145	26
152	17
153	43
154	158
155	305
156	107
157	20
166	18
168	958
169	190
170	30
180	20
182	448
183	113
184	23
196	70
197	232
198	51
210	32
211	18
239	120
240	25
