Mass Spectrum: Butanoic acid, 2-(acetylamino)-
Formula: C6H11NO3
CAS: 7211-57-6
Molecular weight: 145
m/z	intensity
14	14
15	104
25	2
26	18
27	83
28	22
29	45
30	79
31	8
38	8
39	45
40	17
42	79
43	209
44	87
45	55
46	19
50	1
51	2
52	5
53	3
54	15
55	15
56	107
57	66
58	999
59	54
60	108
61	4
67	1
68	27
69	22
70	14
71	10
72	18
73	7
74	114
75	18
76	2
82	2
83	14
84	17
85	5
86	27
87	19
88	23
89	1
91	1
98	2
99	54
100	118
101	49
102	32
103	5
104	3
112	5
114	4
116	8
117	54
118	3
127	5
128	3
129	1
145	97
146	14
147	1
