Mass Spectrum: N-Methyl-6-[4-[trifluoromethyl]phenyl]-1,2,4,5-tetrazin-3-amine
Formula: C10H8F3N5
CAS: 72115-85-6
Molecular weight: 255
m/z	intensity
41	19
42	10
43	5
44	2
45	2
46	2
47	4
48	2
49	29
50	79
51	101
52	17
53	39
54	7
55	759
56	999
57	72
58	1
60	1
61	10
62	31
63	19
64	13
65	1
67	1
68	5
69	71
70	14
71	2
72	6
73	6
74	31
75	164
76	72
77	7
78	0
79	1
80	4
81	13
82	11
83	2
84	21
85	6
86	23
87	25
88	22
89	2
90	1
92	1
93	9
94	45
95	34
96	2
97	1
98	1
99	27
100	31
101	15
102	99
103	9
104	1
105	3
106	6
107	15
108	1
109	0
111	2
112	2
113	1
114	0
116	0
117	1
118	3
119	7
120	13
121	436
122	32
123	3
124	9
125	30
126	11
127	0
129	1
130	0
131	2
132	5
133	1
135	0
137	9
138	4
139	1
140	0
143	13
144	20
145	126
146	8
150	14
151	21
152	267
153	24
154	1
156	3
157	4
158	0
165	0
168	0
170	193
171	427
172	966
173	93
174	3
185	2
186	0
189	0
196	0
203	0
212	1
219	0
226	7
227	1
236	76
237	9
253	2
255	278
256	42
257	3
