Mass Spectrum: 6-[4-Chlorophenyl]-N-[1-ethyl-3-piperidinyl]-1,2,4,5-tetrazin-3-amine
Formula: C15H19ClN6
CAS: 72115-42-5
Molecular weight: 318
m/z	intensity
42	676
43	102
44	74
45	5
47	42
49	108
50	43
51	55
52	2
53	48
54	55
55	122
56	138
57	304
58	128
59	4
60	5
61	1
62	20
63	11
64	5
65	6
67	39
68	100
69	57
70	123
71	132
72	138
73	7
75	67
76	34
77	13
78	24
80	27
81	23
82	56
84	99
85	40
86	49
88	30
89	1
91	5
92	1
93	3
94	9
95	38
96	541
97	63
98	34
99	1
100	20
102	131
103	10
105	2
106	4
108	79
110	333
111	999
112	96
113	6
121	1
122	4
123	6
124	38
125	50
126	0
127	0
129	1
137	183
138	304
139	55
140	8
141	1
149	3
150	2
151	28
152	23
153	19
154	2
155	1
159	4
160	1
163	2
164	0
165	2
166	1
167	0
174	1
178	1
179	0
180	1
194	1
195	1
196	0
197	1
207	2
209	3
210	1
219	0
220	0
221	1
232	1
233	1
234	1
235	1
245	1
246	0
247	1
248	0
249	0
260	3
261	2
262	1
263	0
273	7
275	6
276	0
277	0
289	1
290	3
291	0
292	1
303	2
304	1
305	0
316	1
318	276
319	52
320	97
321	17
322	1
