Mass Spectrum: 6-[3,4-Dichlorophenyl]-N-methyl-N-[1-methylethyl]-1,2,4,5-tetrazin-3-amine
Formula: C12H13Cl2N5
CAS: 72115-60-7
Molecular weight: 297
m/z	intensity
41	280
42	14
43	613
44	22
45	4
47	25
48	12
49	14
50	40
51	4
53	18
54	9
55	49
56	225
57	119
58	23
60	5
61	9
62	9
63	5
64	4
65	0
66	1
67	16
68	5
69	39
70	6
71	7
72	10
73	20
74	34
75	41
76	12
77	1
78	1
79	0
81	1
83	999
84	161
85	22
86	7
87	16
88	12
91	1
92	0
94	1
95	1
96	3
97	11
98	200
99	22
100	96
101	12
102	3
103	0
107	5
108	2
109	31
110	13
111	13
112	5
113	1
119	0
120	1
121	1
122	3
123	1
124	1
130	1
133	1
134	3
135	8
136	55
137	9
138	19
139	2
144	3
145	23
146	3
147	15
148	1
149	5
150	0
151	0
157	2
159	1
169	0
171	119
172	35
173	118
174	25
175	39
176	5
177	4
183	1
185	3
186	0
187	1
190	18
191	2
192	11
193	0
194	2
199	1
204	2
206	2
213	0
218	4
220	3
221	0
226	9
228	7
230	1
282	1
283	2
284	0
285	1
297	144
298	22
299	96
300	15
301	16
302	2
303	0
