Mass Spectrum: N-[4-[6-[Dimethylamino]-1,2,4,5-tetrazin-3-yl]phenyl]acetamide
Formula: C12H14N6O
CAS: 72115-91-4
Molecular weight: 258
m/z	intensity
41	37
42	140
43	180
44	850
45	0
46	1
47	4
48	1
49	21
50	21
51	34
52	30
53	34
54	12
55	15
56	8
57	4
58	0
59	1
60	1
61	4
62	23
63	66
64	81
65	27
66	8
67	9
69	386
70	278
71	65
72	5
73	3
74	6
75	19
76	20
77	12
78	13
79	3
80	0
81	1
82	1
83	1
84	13
85	0
86	9
87	4
88	13
89	16
90	114
91	121
92	14
93	1
94	0
95	1
96	0
97	1
98	0
99	1
100	1
101	2
102	24
103	5
104	6
105	2
106	3
107	0
108	1
109	0
110	0
111	0
113	0
114	0
115	0
116	17
117	17
118	358
119	999
120	0
121	2
122	1
123	0
124	2
125	0
129	2
130	1
131	5
132	1
133	0
134	0
135	0
136	4
137	1
143	0
144	5
145	1
146	0
148	0
149	1
150	1
151	7
152	0
158	1
159	13
160	246
161	29
162	5
163	0
171	0
172	0
177	1
178	0
179	0
190	0
191	2
192	0
193	4
194	0
205	0
215	6
216	1
219	1
220	1
223	0
229	0
233	0
242	1
243	2
244	0
245	0
256	0
257	1
258	243
259	38
260	3
