Mass Spectrum: N-(3-Acetylphenyl)benzeneethanamide
Formula: C16H15NO2
CAS: 72116-69-9
Molecular weight: 253
m/z	intensity
37	1
38	8
39	67
40	5
41	27
42	2
43	129
44	3
45	0
47	0
49	0
50	13
51	35
52	8
53	3
54	0
55	7
56	2
57	18
58	0
59	0
60	0
61	1
62	8
63	55
64	31
65	209
66	11
67	1
68	0
69	8
70	2
71	11
72	1
73	0
74	3
75	6
76	19
77	31
78	9
79	4
80	0
81	1
82	0
83	2
84	0
85	6
86	1
87	1
88	1
89	52
90	90
91	999
92	322
93	24
94	1
95	0
96	0
97	1
98	0
99	3
101	0
102	1
103	1
104	3
105	1
106	6
107	3
108	1
109	0
110	0
111	0
112	0
113	1
115	1
116	1
117	0
118	281
119	93
120	269
121	22
122	0
126	0
127	2
128	0
129	1
130	0
131	0
132	2
133	0
134	26
135	713
136	62
137	3
138	0
139	0
140	0
141	1
144	0
146	49
147	4
148	6
149	4
150	0
151	0
152	2
153	1
154	0
155	1
159	0
161	10
162	65
163	6
164	0
165	3
166	1
167	1
168	0
169	1
174	0
178	0
179	0
180	5
181	3
182	4
183	1
184	1
192	0
193	0
196	0
209	0
210	2
211	0
223	0
224	8
225	2
238	12
239	2
240	0
252	0
253	481
254	86
255	10
256	0
