Mass Spectrum: N-Methyl-6-[3-[trifluoromethyl]phenyl]-1,2,4,5-tetrazin-3-amine
Formula: C10H8F3N5
CAS: 72115-77-6
Molecular weight: 255
m/z	intensity
41	18
42	9
43	7
44	3
45	3
46	2
47	3
48	2
49	24
50	80
51	95
52	18
53	34
54	2
55	614
56	999
57	22
58	1
59	0
60	1
61	9
62	27
63	16
64	9
65	1
67	1
68	5
69	60
70	10
71	3
72	0
73	4
74	22
75	133
76	61
77	6
78	0
79	1
80	3
81	12
82	8
83	1
84	13
85	4
86	14
87	17
88	11
89	1
90	0
91	0
92	0
93	6
94	28
95	21
96	2
97	1
99	21
100	22
101	9
102	66
103	6
105	3
106	4
107	9
108	1
109	0
111	2
112	2
113	1
114	0
116	0
117	1
118	2
119	5
120	9
121	213
122	16
123	1
124	6
125	18
126	7
127	0
129	0
130	0
131	1
132	3
133	1
137	5
138	2
139	0
140	0
143	8
144	9
145	65
146	4
149	0
150	8
151	13
152	144
153	13
154	0
156	2
157	2
158	0
170	126
171	209
172	464
173	39
174	1
185	1
186	0
226	3
227	0
236	41
237	5
253	0
255	87
256	12
257	0
