Mass Spectrum: 2(1H)-Pyridone, 4-hydroxy-1,6-dimethyl-, acetate (ester)
Formula: C9H11NO3
CAS: 7211-75-8
Molecular weight: 181
m/z	intensity
52	38
53	54
54	71
55	125
56	424
57	11
58	11
62	27
63	49
64	43
65	11
66	54
67	54
68	54
69	190
70	33
78	11
79	16
80	16
81	16
82	190
83	38
84	16
94	33
95	16
96	49
97	33
98	870
99	33
107	33
109	65
110	424
111	999
112	65
137	16
138	33
139	891
140	71
181	326
182	54
