Mass Spectrum: 3-[4-Chlorophenyl]-6-[1-piperidinyl]-1,2,4,5-tetrazine
Formula: C13H14ClN5
CAS: 72115-40-3
Molecular weight: 275
m/z	intensity
42	999
43	234
44	38
45	2
47	3
49	16
50	65
51	68
53	120
54	14
55	353
56	94
57	147
58	4
60	4
61	6
62	18
63	11
64	5
65	5
66	0
67	46
69	389
70	28
71	3
73	21
74	2
75	93
76	38
77	5
78	4
79	3
80	5
81	18
82	40
83	38
84	24
85	16
86	12
87	6
88	5
89	0
90	0
92	7
93	2
95	22
97	6
98	0
99	10
100	14
102	135
103	9
104	1
105	0
107	2
109	260
110	624
111	6
112	159
113	14
114	2
115	0
123	3
124	0
125	2
126	0
127	0
128	0
137	142
139	86
141	20
142	1
151	0
152	0
153	0
155	0
156	0
170	3
172	1
177	0
180	0
196	0
197	0
222	0
224	0
274	0
275	97
276	16
277	33
278	5
