Mass Spectrum: n-Butyl-6-[3,4-dichlorophenyl]-N-methyl-1,2,4,5-tetrazin-3-amine
Formula: C13H15Cl2N5
CAS: 72115-62-9
Molecular weight: 311
m/z	intensity
41	121
42	102
43	57
44	242
45	9
47	29
48	9
49	6
50	2
51	4
52	4
53	20
54	9
55	39
56	58
57	94
58	10
59	1
60	3
61	6
62	6
63	3
64	2
66	1
67	7
68	2
69	999
70	67
71	9
72	5
73	11
74	15
75	19
76	9
77	2
79	1
80	1
81	2
82	7
83	123
84	237
85	24
86	38
87	10
88	6
91	1
93	1
94	1
95	3
96	4
97	48
98	38
99	13
100	60
101	8
102	1
107	4
108	1
109	18
110	9
111	62
112	34
113	2
114	7
115	1
120	1
121	1
122	2
123	1
124	1
125	1
131	1
133	2
134	4
135	13
136	69
137	10
138	22
139	2
143	1
144	3
145	13
146	3
147	9
148	1
149	4
155	1
157	2
159	1
169	1
171	140
172	18
173	93
174	11
175	17
176	1
185	1
187	1
189	2
190	1
213	1
217	3
226	6
228	3
230	1
232	1
268	3
270	4
272	1
311	75
312	12
313	47
314	7
315	7
316	1
