Mass Spectrum: 6-[4-Fluorophenyl]-N,N-dimethyl-1,2,4,5-tetrazin-3-amine
Formula: C10H10FN5
CAS: 72115-90-3
Molecular weight: 219
m/z	intensity
41	26
42	135
43	36
44	10
45	6
46	12
47	9
48	4
49	49
50	57
51	33
52	8
53	54
54	12
55	17
56	9
57	53
58	2
60	0
61	8
62	10
63	16
64	10
65	0
66	0
67	5
68	18
69	871
70	999
71	44
72	15
73	4
74	13
75	50
76	22
77	4
79	0
80	3
81	17
82	3
83	2
84	30
85	3
86	21
87	3
88	18
89	0
90	0
92	2
93	12
94	133
95	40
96	2
97	1
99	7
100	17
101	6
102	2
105	2
106	2
107	3
109	1
119	1
120	7
121	265
122	42
123	8
124	0
135	1
149	0
176	0
217	0
219	158
220	18
221	1
