Mass Spectrum: Iron, (.eta.4-1,3-butadiene)carbonyl[N,N'-1,2-ethanediylidenebis[2-propanamine]-N,N']-, stereoisomer
Formula: C13H22FeN2O
CAS: 72142-40-6
Molecular weight: 278
m/z	intensity
26	123
27	381
28	622
29	38
30	57
31	0
37	6
38	24
39	392
40	40
41	282
42	220
43	999
44	49
47	0
49	8
50	73
51	89
52	49
53	221
54	378
55	114
56	290
57	43
58	17
59	1
65	1
66	4
67	8
68	35
69	34
70	197
71	76
72	12
78	5
79	2
80	12
81	19
82	62
83	523
84	44
85	4
91	1
92	0
93	1
94	2
95	8
96	9
97	66
98	23
99	8
100	8
106	1
107	1
108	23
109	12
110	16
111	9
112	22
113	18
114	2
121	2
123	9
124	10
125	582
126	48
127	6
128	9
136	1
137	7
138	13
139	31
140	29
141	3
150	1
151	2
152	12
153	18
154	78
155	8
156	1
161	1
163	3
164	2
165	12
166	5
167	1
168	11
169	1
170	1
177	4
178	4
179	30
180	32
181	44
182	5
192	17
193	6
194	119
195	19
196	206
197	29
198	2
222	1
224	14
225	1
248	6
249	2
250	101
251	16
252	0
276	0
278	23
279	4
