Mass Spectrum: Benzene, (1-nitroethyl)-
Formula: C8H9NO2
CAS: 7214-61-1
Molecular weight: 151
m/z	intensity
18	20
27	50
28	20
30	20
39	50
43	20
50	50
51	130
52	30
53	20
63	40
65	20
74	10
75	10
76	20
77	280
78	90
79	250
89	10
91	10
102	20
103	170
104	80
105	999
106	100
