Mass Spectrum: Cyclohexanone, 3,5-dimethyl-, cis-
Formula: C8H14O
CAS: 7214-52-0
Molecular weight: 126
m/z	intensity
37	4
38	25
39	346
40	76
41	546
42	299
43	213
50	8
51	21
52	6
53	53
54	18
55	301
56	379
57	34
66	5
67	62
68	42
69	999
70	74
71	47
72	4
73	0
82	104
83	92
84	87
85	9
86	0
91	4
92	0
93	65
95	1
97	16
98	4
107	3
108	33
109	5
111	235
112	20
126	191
127	17
