Mass Spectrum: 1-(4-Nitrobenzoyl)piperazine
Formula: C11H13N3O3
CAS: 72141-41-4
Molecular weight: 235
m/z	intensity
41	20
42	133
43	37
44	209
45	9
50	66
51	12
54	20
55	98
56	999
57	143
58	81
63	8
64	14
68	26
69	710
70	35
74	15
75	44
76	172
77	20
83	17
84	15
85	301
86	19
92	51
103	7
104	175
105	16
120	36
134	25
135	8
136	7
150	452
151	65
152	5
159	13
163	16
165	7
167	10
179	13
180	13
181	10
193	29
205	62
206	13
207	14
234	19
235	178
236	26
