Mass Spectrum: Prosta-8(12),13-dien-1-oic acid, 9-(methoxyimino)-15-[(trimethylsilyl)oxy]-, trimethylsilyl ester
Formula: C27H51NO4Si2
CAS: 72150-31-3
Molecular weight: 509
m/z	intensity
40	29
41	80
42	24
43	99
44	27
45	70
46	5
47	32
48	3
49	5
50	11
51	11
52	19
53	11
54	8
55	86
56	16
57	21
58	8
59	51
60	8
61	21
62	3
63	5
65	8
66	5
67	37
68	5
69	35
70	8
71	27
72	16
73	999
74	88
75	401
76	29
77	51
78	24
79	64
80	13
81	29
82	8
83	19
84	5
85	8
86	3
87	5
88	3
89	64
90	8
91	67
92	13
93	29
94	13
95	19
96	19
97	11
98	5
99	21
100	5
101	11
102	3
103	29
104	13
105	40
106	16
107	16
108	13
109	11
110	5
111	5
112	3
113	5
115	21
116	21
117	75
118	29
119	29
120	32
121	16
122	8
123	5
124	3
125	5
126	5
127	5
128	11
129	75
130	40
131	43
132	91
133	45
134	32
136	11
137	5
138	8
139	8
141	11
142	11
143	35
144	40
145	43
146	37
147	29
148	32
149	21
150	16
151	5
152	5
153	5
154	5
155	13
156	16
157	24
158	37
159	24
160	21
161	11
162	16
163	11
164	8
165	5
166	5
167	5
168	5
169	11
170	13
171	21
172	24
173	32
174	19
175	8
176	16
177	8
178	8
179	13
180	5
181	8
182	5
183	8
184	16
185	13
186	13
187	11
188	16
189	8
190	8
191	19
192	13
193	16
194	5
195	8
196	5
197	16
198	16
199	11
200	16
201	8
202	24
203	11
204	13
205	11
206	11
208	32
209	27
210	5
211	5
212	8
213	5
214	16
215	8
216	19
217	11
218	11
219	8
220	29
222	13
223	8
224	3
225	5
226	13
227	5
228	8
229	5
230	5
231	3
232	11
233	8
234	11
235	5
236	3
237	3
241	3
242	5
244	5
246	8
247	5
248	11
249	8
250	3
251	5
252	3
253	11
254	3
255	5
256	3
257	3
258	3
259	5
260	5
261	3
262	5
263	3
264	3
265	8
268	5
269	5
270	5
271	5
272	3
274	5
276	5
277	3
278	5
279	5
280	5
284	5
285	5
288	8
289	3
290	16
291	5
292	16
293	5
294	3
295	13
296	5
297	3
298	8
299	5
300	3
304	11
305	5
306	37
307	11
308	24
309	5
310	3
313	5
314	3
315	3
316	11
317	5
318	8
319	3
320	3
322	5
323	5
325	5
326	3
327	8
328	3
329	3
330	5
331	8
332	5
333	3
334	5
335	3
336	13
337	5
339	3
342	5
343	5
344	3
345	5
346	5
347	3
348	3
350	3
358	5
359	5
360	3
370	3
371	3
372	11
373	5
374	3
376	3
378	16
379	5
380	5
386	3
387	5
388	43
389	16
390	8
391	3
392	3
401	5
402	3
403	5
404	5
405	8
406	11
407	5
408	5
409	3
410	3
415	5
416	3
417	5
418	3
419	13
420	19
421	8
422	3
423	5
433	3
434	3
438	48
439	19
440	8
448	3
449	5
450	5
451	3
462	5
463	3
464	3
475	5
476	16
477	64
478	534
479	225
480	80
481	19
482	3
494	59
495	24
496	11
497	3
508	3
509	45
510	19
511	5
