Mass Spectrum: 2,6-Octadiene, 1-methoxy-3,7-dimethyl-
Formula: C11H20O
CAS: 72152-72-8
Molecular weight: 168
m/z	intensity
26	2
27	91
28	52
29	75
30	1
31	9
33	20
38	3
39	110
40	108
41	808
42	36
43	36
44	1
45	136
46	2
50	3
51	14
52	6
53	84
54	10
55	82
56	5
57	28
58	8
59	31
60	0
63	2
64	0
65	29
66	7
67	283
68	335
69	999
70	56
71	29
72	4
73	87
74	4
77	23
78	4
79	38
80	100
81	90
82	12
83	36
84	6
85	169
86	67
87	5
91	23
92	43
93	214
94	44
95	37
96	6
97	21
98	111
99	63
100	5
103	1
105	9
106	2
107	42
108	11
109	11
110	4
111	46
112	12
113	4
114	0
115	0
119	2
120	0
121	114
122	16
123	128
124	15
125	52
126	11
127	1
135	1
136	101
137	15
138	1
139	0
153	24
154	3
167	1
168	177
169	21
170	1
