Mass Spectrum: Kauren-18-ol, acetate, (4.beta.)-
Formula: C22H34O2
CAS: 72150-74-4
Molecular weight: 330
m/z	intensity
31	37
39	84
41	598
42	46
43	999
44	37
45	56
47	112
53	121
55	429
56	93
57	121
61	74
65	37
66	28
67	327
68	186
69	626
70	46
73	84
77	130
78	46
79	327
80	102
81	476
82	93
83	93
84	46
91	345
92	158
93	429
94	140
95	280
96	65
97	93
103	28
104	46
105	280
106	130
107	271
108	93
109	205
117	112
118	65
119	205
120	112
121	168
122	84
123	224
131	158
132	56
133	140
134	102
135	158
136	93
137	93
143	46
145	112
146	74
147	112
148	74
149	74
159	130
160	46
161	93
173	46
175	46
187	93
189	46
202	74
204	46
227	56
255	65
257	112
270	46
272	46
287	18
315	28
330	158
