Mass Spectrum: Prost-13-en-1-oic acid, 9-(methoxyimino)-11,15-bis[(trimethylsilyl)oxy]-, trimethylsilyl ester, (8.xi.,12.xi.)-
Formula: C30H61NO5Si3
CAS: 72150-30-2
Molecular weight: 599
m/z	intensity
41	38
42	8
43	67
44	7
45	36
46	3
47	12
48	1
49	1
50	1
51	2
52	2
53	7
54	7
55	62
56	7
57	14
58	8
59	33
60	4
61	14
62	1
63	1
64	1
65	4
66	6
67	67
68	9
69	28
70	4
71	22
72	16
73	999
74	88
75	275
76	20
77	24
78	8
79	49
80	20
81	51
82	7
83	22
84	5
85	7
86	3
87	3
88	3
89	49
90	4
91	41
92	10
93	43
94	17
95	32
96	7
97	11
98	6
99	21
100	4
101	30
102	4
103	28
104	6
105	28
106	12
107	13
108	9
109	12
110	4
111	7
113	6
114	3
115	7
116	20
117	28
118	11
119	15
120	7
121	12
122	7
123	9
124	3
125	4
126	6
127	6
128	4
129	54
130	84
131	34
132	16
133	145
134	19
135	14
136	5
137	6
138	2
139	4
140	3
141	4
142	23
143	35
144	14
145	14
146	7
147	57
148	13
149	18
150	9
151	9
152	4
153	5
154	2
155	20
156	9
157	20
158	7
159	7
160	3
161	6
162	4
163	9
164	4
165	6
166	3
167	13
168	9
169	12
170	14
171	17
172	6
173	17
174	4
175	14
176	4
177	4
178	2
179	2
180	3
181	11
182	5
183	4
184	3
185	9
186	15
187	10
188	4
189	3
190	3
191	4
192	2
193	3
194	7
195	4
196	3
197	7
198	4
199	20
200	6
201	3
202	3
203	4
204	12
205	3
206	4
207	4
208	3
209	3
210	1
211	4
212	4
213	2
214	3
215	1
216	1
217	12
218	6
219	3
220	2
221	2
222	3
223	3
224	3
225	54
226	16
227	4
228	1
229	4
230	3
231	1
232	1
233	1
234	1
235	1
236	1
237	4
238	3
239	6
240	3
241	1
242	1
243	6
244	3
245	4
246	6
247	4
248	2
249	5
250	2
251	3
252	1
253	3
254	2
255	1
256	1
257	1
258	1
259	1
260	1
261	1
262	1
263	1
264	1
265	4
266	1
267	3
268	1
269	1
270	1
271	1
272	1
273	1
274	1
275	1
276	1
277	1
278	4
279	3
280	2
281	3
282	1
283	1
285	1
287	1
288	1
289	1
290	1
291	1
292	1
293	1
294	1
295	1
296	1
297	1
298	2
299	1
300	1
304	1
306	1
307	1
308	4
309	4
310	4
311	2
312	1
313	11
314	4
315	1
316	1
317	1
318	1
320	1
321	4
322	1
323	1
324	1
325	1
326	1
327	18
328	4
329	3
330	1
332	1
333	1
334	1
335	1
336	17
337	7
338	2
339	1
340	1
341	1
342	1
343	1
345	1
346	1
348	1
349	1
352	2
353	1
354	3
355	106
356	28
357	14
358	4
359	1
360	1
363	1
364	1
365	2
366	4
367	3
368	10
369	4
370	3
371	1
372	1
373	1
376	1
380	2
381	1
382	1
383	4
384	1
385	1
388	3
389	1
390	2
391	1
394	1
395	1
396	1
397	1
398	1
399	1
400	1
406	1
408	1
409	1
410	1
411	2
412	1
413	1
419	1
421	1
422	1
423	1
424	2
425	4
426	72
427	28
428	10
429	4
430	1
438	3
439	2
440	2
441	1
462	3
463	1
464	2
476	1
477	1
478	7
479	4
480	2
481	1
528	5
529	2
530	1
568	4
569	3
570	1
584	7
585	4
586	2
599	1
