Mass Spectrum: 3-Heptenoic acid, 7-phenyl-, ethyl ester, (E)-
Formula: C15H20O2
CAS: 72178-97-3
Molecular weight: 232
m/z	intensity
26	3
27	51
28	10
29	209
30	5
31	3
38	3
39	54
40	12
41	65
42	11
43	22
44	2
45	6
50	7
51	35
52	11
53	42
54	16
55	76
56	12
57	12
58	3
59	1
60	8
61	11
62	3
63	18
64	6
65	107
66	16
67	92
68	31
69	23
70	9
71	82
72	4
73	9
74	2
75	4
76	5
77	87
78	44
79	70
80	13
81	46
82	8
83	4
84	3
85	10
86	3
87	3
88	32
89	23
90	12
91	926
92	276
93	20
94	2
95	22
96	2
97	3
98	3
99	81
101	16
102	13
103	62
104	999
105	295
106	33
107	6
108	1
109	0
110	0
111	1
112	2
113	67
114	8
115	30
116	14
117	175
118	47
119	15
120	3
121	0
125	3
126	1
127	20
128	38
129	47
130	44
131	53
132	28
133	6
134	1
135	1
139	0
140	3
141	132
142	27
143	49
144	259
145	116
146	11
147	1
151	0
152	1
153	1
154	2
155	2
156	1
157	10
158	46
159	115
160	14
161	1
167	1
168	2
169	2
171	0
172	0
173	1
178	1
181	1
185	6
186	260
187	42
188	3
189	0
203	2
204	2
232	105
233	17
234	2
