Mass Spectrum: 4-Chloropyridazine 1-oxide
Formula: C4H3ClN2O
CAS: 7217-74-5
Molecular weight: 130
m/z	intensity
12	1
13	1
17	2
18	14
24	3
25	11
26	10
27	6
28	21
29	17
30	50
35	3
36	15
37	97
38	169
39	86
40	64
41	6
42	2
43	6
44	2
47	58
48	21
49	35
50	56
51	102
52	22
53	2
59	2
60	34
61	3
62	19
63	23
64	33
65	39
66	7
67	15
68	29
69	1
71	4
72	28
73	596
74	50
75	201
76	19
77	7
78	4
79	9
84	1
85	4
86	11
87	4
88	4
95	2
98	2
99	1
100	267
101	12
102	88
103	7
104	1
114	34
115	2
116	10
130	999
131	53
132	330
133	16
134	1
