Mass Spectrum: 2'-Hydroxy-5'-bromodihydro-2-stilbazole
Formula: C13H12BrNO
CAS: 72175-06-5
Molecular weight: 277
m/z	intensity
39	30
52	30
65	30
66	30
77	30
78	60
79	40
93	999
94	70
106	60
180	30
260	30
262	30
277	90
278	30
279	70
280	10
