Mass Spectrum: 3-Trimethylsilylhex-4-enamide, N,N-dimethyl-
Formula: C11H23NOSi
CAS: 72178-88-2
Molecular weight: 213
m/z	intensity
27	7
28	7
29	8
30	2
31	7
39	13
40	5
41	25
42	32
43	50
44	52
45	107
46	6
47	4
51	2
52	1
53	14
54	2
55	22
56	13
57	12
58	18
59	67
60	6
61	6
63	1
65	1
66	6
67	5
68	33
69	29
70	9
71	36
72	30
73	999
74	70
75	52
76	2
77	4
78	3
79	6
80	1
81	11
82	6
83	12
84	5
85	11
86	4
87	5
88	3
89	1
90	1
91	4
92	2
93	2
94	4
95	24
96	7
97	10
98	4
99	10
100	2
101	12
102	115
103	12
104	6
105	1
106	1
107	3
108	6
109	9
110	3
111	13
112	5
113	3
114	2
115	7
116	28
117	9
118	5
119	1
120	1
121	1
122	3
123	2
124	22
125	4
126	5
127	2
128	4
129	2
130	163
131	16
132	6
133	0
138	1
139	1
140	6
141	2
142	15
143	4
144	50
145	194
146	23
147	7
148	1
149	2
151	1
152	1
153	1
154	2
155	4
156	25
157	8
158	17
159	61
160	11
161	4
165	1
166	1
167	1
168	6
169	33
170	112
171	19
172	23
173	3
174	1
180	1
181	2
182	18
183	6
184	386
185	92
186	27
187	3
196	11
197	3
198	605
199	98
200	28
201	3
210	2
211	1
212	107
213	152
214	28
215	6
