Mass Spectrum: 3-Hexenamide, N,N,2-trimethyl-, (E)-(.+-.)-
Formula: C9H17NO
CAS: 72178-96-2
Molecular weight: 155
m/z	intensity
27	18
28	7
29	13
39	28
40	4
41	55
42	24
43	13
44	27
45	10
51	3
53	14
54	3
55	117
56	11
57	3
58	3
65	3
67	23
68	6
72	999
73	39
74	4
79	3
81	5
82	11
83	38
84	10
87	4
95	16
98	4
101	5
112	4
126	20
127	3
140	224
141	22
155	55
156	5
