Mass Spectrum: 4-Hexen-2-one, 3-methyl-
Formula: C7H12O
CAS: 72189-24-3
Molecular weight: 112
m/z	intensity
27	142
29	40
30	0
31	2
37	9
38	21
39	202
40	31
41	913
42	57
43	999
44	21
45	3
49	2
50	15
51	23
52	9
53	63
54	10
55	28
56	2
57	1
58	0
59	0
60	0
61	2
62	5
63	7
64	1
65	11
66	5
67	53
68	69
69	519
70	35
71	1
72	0
74	0
77	2
78	0
79	3
80	0
81	2
82	0
83	1
84	0
92	0
94	12
95	3
96	0
97	70
98	5
109	0
111	0
112	80
113	6
