Mass Spectrum: 3-Isopropoxy-1,1,1,5,5,5-hexamethyl-3-(trimethylsiloxy)trisiloxane
Formula: C12H34O4Si4
CAS: 72182-11-7
Molecular weight: 354
m/z	intensity
41	138
43	547
44	31
45	189
59	81
73	999
74	94
75	81
119	24
133	58
163	22
177	38
179	28
189	23
190	128
192	42
193	113
205	49
207	431
208	106
209	50
249	98
250	26
251	29
265	85
266	24
267	23
281	789
282	211
283	125
284	26
297	25
339	308
340	94
341	48
