Mass Spectrum: Thiazolidin-4-one, 2-(4-chlorobenzylidenhydrazono)-
Formula: C10H8ClN3OS
CAS: 722-32-7
Molecular weight: 253
m/z	intensity
37	20
38	30
39	53
40	26
42	378
43	66
44	40
45	233
46	362
47	28
48	4
50	122
51	47
52	6
55	3
58	10
59	51
60	19
61	40
62	116
63	214
64	13
68	4
69	17
70	2
71	4
72	35
73	65
74	101
75	213
76	42
77	20
82	1
84	17
85	37
86	50
87	85
89	999
90	66
97	16
99	19
100	17
101	12
102	76
103	12
108	4
111	270
112	72
113	100
114	75
115	63
116	58
117	29
119	17
121	3
124	867
125	138
126	260
127	14
131	2
134	4
135	14
136	25
138	885
139	334
140	309
141	162
142	275
143	27
144	8
147	4
149	12
150	17
151	61
152	143
153	75
154	43
155	47
156	14
157	14
163	16
164	21
165	20
166	9
167	6
171	6
174	2
178	12
179	24
180	40
181	7
182	20
183	20
185	8
206	22
208	12
218	3
224	22
226	5
236	2
252	442
253	889
254	266
255	276
256	32
257	13
