Mass Spectrum: Benzeneacetic acid, phenyl ester
Formula: C14H12O2
CAS: 722-01-0
Molecular weight: 212
m/z	intensity
26	0
27	3
29	1
37	1
38	7
39	69
40	2
41	9
42	0
43	0
50	9
51	23
52	5
53	3
57	0
61	2
62	9
63	32
64	15
65	122
66	9
67	1
74	2
75	1
76	0
77	14
81	0
86	1
87	0
89	34
90	95
91	837
92	71
93	13
94	37
95	2
103	0
117	2
118	999
119	105
120	6
152	0
155	0
165	2
212	8
213	1
