Mass Spectrum: Hexanoic acid, 2-ethyl-, tetradecyl ester
Formula: C22H44O2
CAS: 72201-45-7
Molecular weight: 340
m/z	intensity
27	95
29	242
30	11
31	21
36	11
39	53
40	21
41	505
42	126
43	842
44	379
45	21
53	26
54	516
56	211
57	999
58	53
59	11
66	11
67	53
68	63
69	274
70	168
71	221
72	10
73	95
74	10
81	31
82	95
83	221
84	105
85	116
86	10
87	63
88	295
89	211
90	10
91	10
95	10
96	53
97	179
98	74
99	126
100	10
101	63
102	10
103	21
109	10
110	26
111	84
112	42
113	16
115	42
116	42
117	53
118	10
124	21
125	53
126	31
127	105
128	10
129	10
139	21
140	21
143	10
144	53
145	821
146	74
153	10
154	10
168	31
196	84
197	16
200	1
211	1
213	2
241	27
242	5
269	1
284	13
285	3
297	2
311	1
312	5
313	1
340	8
341	2
342	0
