Mass Spectrum: 3-Methylheptyl acetate
Formula: C10H20O2
CAS: 72218-58-7
Molecular weight: 172
m/z	intensity
27	150
28	40
29	190
31	20
39	70
40	20
41	270
42	100
43	999
44	20
45	10
55	260
56	150
57	310
61	50
69	70
70	430
71	60
73	60
74	100
75	20
83	120
84	60
111	10
112	30
