Mass Spectrum: Butanedioic acid, 2-(acetyloxy)-3-hydroxy-, dimethyl ester, [r-(R*,R*)]-
Formula: C8H12O7
CAS: 72229-27-7
Molecular weight: 220
m/z	intensity
26	2
27	4
28	5
29	47
30	12
31	32
33	59
39	1
40	1
41	5
42	33
43	999
44	34
45	18
46	0
47	2
53	2
54	1
55	1
56	1
57	5
58	11
59	59
60	20
61	5
62	2
63	4
69	19
70	4
71	30
72	2
73	11
74	2
75	15
76	1
77	2
81	1
82	0
83	1
85	5
86	0
87	9
88	3
89	8
90	433
91	22
92	3
100	5
101	61
102	9
103	1
104	1
105	1
110	0
111	1
113	2
114	0
115	1
116	0
117	4
118	2
119	136
120	6
121	1
122	0
123	0
129	70
130	4
131	52
132	188
133	11
134	2
140	0
141	0
143	1
144	0
151	0
152	1
153	0
154	0
159	0
160	2
161	243
162	16
163	3
165	0
167	1
177	0
178	9
179	1
180	0
181	3
182	0
186	0
189	10
190	0
