Mass Spectrum: 3.alpha.-Methyl-trans-hexahydrophthalide
Formula: C9H14O2
CAS: 72233-60-4
Molecular weight: 154
m/z	intensity
27	180
28	58
29	85
39	230
40	53
41	322
42	32
43	191
51	42
53	127
54	284
55	164
65	31
66	159
67	999
68	361
69	121
77	52
79	76
80	40
81	557
82	470
83	44
93	150
95	202
96	18
108	7
109	12
110	235
111	78
112	5
125	2
126	1
139	77
140	8
153	1
154	42
155	7
156	1
