Mass Spectrum: N-(2-Propynyl)pyrrolidine
Formula: C7H11N
CAS: 7223-42-9
Molecular weight: 109
m/z	intensity
27	44
28	78
29	18
30	10
38	10
39	238
40	24
41	256
42	496
43	42
52	16
53	62
54	222
55	78
56	18
57	32
66	96
67	40
68	116
69	10
70	126
71	10
79	16
80	94
81	218
82	14
84	44
94	10
107	10
108	999
109	464
110	38
