Mass Spectrum: 1,2-Dimethyl-1,2-dibenzyldiphosphane disulfide
Formula: C16H20P2S2
CAS: 72242-37-6
Molecular weight: 338
m/z	intensity
51	50
63	67
65	387
77	56
78	36
79	24
89	61
90	30
91	999
92	282
109	177
121	40
135	32
137	302
138	28
152	40
153	119
168	65
169	625
170	78
171	30
215	53
216	24
245	40
247	948
248	244
249	204
250	30
305	16
323	20
336	40
337	12
338	625
339	129
340	67
341	20
