Mass Spectrum: 3-Oxa-9-azabicyclo[3.3.1]nonan-7-ol, 9-methyl-, endo-
Formula: C8H15NO2
CAS: 7224-84-2
Molecular weight: 157
m/z	intensity
31	57
32	86
41	286
42	714
43	343
44	571
45	214
46	57
55	129
56	214
57	571
58	321
59	71
60	286
67	57
68	107
69	36
70	143
71	57
72	57
77	57
78	21
79	21
81	21
82	157
83	107
84	107
85	157
95	129
96	71
98	179
99	57
100	57
105	86
106	57
108	57
110	657
111	57
112	999
113	179
126	214
127	86
128	21
140	36
156	57
157	929
158	57
