Mass Spectrum: 9-Borabicyclo[3.3.1]nonane, 9-heptyl-
Formula: C15H29B
CAS: 72245-81-9
Molecular weight: 220
m/z	intensity
27	12
29	149
36	12
37	29
38	37
39	406
40	269
41	999
42	27
43	31
44	62
45	12
47	8
49	45
50	49
51	248
52	385
53	987
54	352
55	99
56	3
57	45
59	33
61	24
62	45
63	58
64	120
65	489
66	311
67	315
68	236
69	58
70	74
71	4
72	24
73	20
75	4
76	91
77	290
78	145
79	655
80	448
81	597
82	124
83	7
84	45
88	24
89	66
90	87
91	261
92	439
93	862
94	771
95	315
96	10
97	178
98	49
99	24
103	33
104	4
105	87
106	62
107	124
108	344
109	45
110	145
111	112
113	24
114	12
115	12
117	12
118	4
119	91
120	265
121	655
122	502
123	87
124	20
125	62
126	16
133	29
134	53
135	41
136	41
140	16
143	12
144	12
145	33
146	16
147	29
149	78
150	33
151	33
152	4
153	33
160	29
161	12
163	12
165	12
169	16
174	16
176	8
177	33
178	37
179	49
185	12
190	20
192	29
194	12
207	33
208	8
219	190
220	850
221	128
222	24
