Mass Spectrum: 3-Oxa-9-azabicyclo[3.3.1]nonan-7-one, 9-methyl-
Formula: C8H13NO2
CAS: 7224-81-9
Molecular weight: 155
m/z	intensity
31	17
39	103
40	41
41	207
42	759
43	69
44	241
67	17
68	28
69	28
70	62
73	17
80	28
81	28
82	172
83	86
84	103
94	17
95	97
96	97
97	41
98	17
109	138
110	999
111	76
112	34
124	10
125	10
154	28
155	724
156	62
