Mass Spectrum: Undecane, 3-phenethyl-1-phenyl-
Formula: C25H36
CAS: 7225-70-9
Molecular weight: 336
m/z	intensity
14	1
15	2
16	1
25	0
26	2
27	52
28	12
29	84
30	2
37	1
38	1
39	30
40	5
41	112
42	11
43	104
44	4
45	0
49	0
50	3
51	12
52	4
53	11
54	5
55	57
56	10
57	50
58	2
61	0
62	1
63	5
64	2
65	63
66	5
67	12
68	4
69	23
70	4
71	20
72	1
73	1
74	1
75	3
76	3
77	43
78	26
79	31
80	3
81	4
82	1
83	12
84	2
85	12
86	1
87	0
88	0
89	9
90	8
91	999
92	936
93	71
94	3
95	2
96	1
97	7
98	1
99	1
100	0
101	1
102	4
103	23
104	89
105	155
106	17
107	1
108	0
109	1
110	1
111	3
112	0
113	1
114	1
115	14
116	7
117	39
118	8
119	21
120	3
121	0
123	1
124	0
125	0
126	1
127	3
128	7
129	10
130	6
131	34
132	6
133	13
134	2
135	0
137	1
138	1
139	1
140	0
141	2
142	1
143	4
144	4
145	16
146	8
147	10
148	1
149	0
151	1
152	2
153	1
154	1
155	1
156	0
157	1
158	1
159	2
160	2
161	7
162	1
163	0
164	1
165	2
166	1
167	11
168	2
169	0
170	0
171	0
172	0
173	0
174	0
175	5
176	1
177	1
178	1
179	1
180	0
181	3
182	1
183	0
185	0
187	1
188	1
189	3
190	0
191	0
192	0
193	0
195	0
201	0
202	1
203	2
204	1
207	0
215	0
216	0
217	1
219	0
221	0
222	0
223	2
224	0
227	0
228	0
229	3
230	2
231	2
232	2
233	1
235	0
236	0
237	2
238	1
240	1
241	1
242	1
243	2
244	9
245	25
246	5
247	1
251	0
252	0
255	0
256	0
257	1
258	2
259	1
281	0
282	1
334	2
335	1
336	101
337	28
338	4
