Mass Spectrum: Heptane, 2,2,3,3,5,6,6-heptamethyl-
Formula: C14H30
CAS: 7225-67-4
Molecular weight: 198
m/z	intensity
26	2
27	57
28	12
29	141
30	3
36	0
37	1
38	1
39	54
40	10
41	265
42	24
43	309
44	10
45	0
49	0
50	0
51	3
52	1
53	17
54	4
55	96
56	52
57	999
58	44
59	0
63	0
65	2
66	1
67	11
68	2
69	80
70	34
71	214
72	11
73	0
74	0
75	0
76	0
77	5
78	1
79	4
80	0
81	5
82	14
83	80
84	102
85	539
86	35
87	1
91	2
92	0
93	1
94	0
95	2
96	0
97	6
98	16
99	165
100	12
101	0
103	0
104	0
105	0
106	0
107	0
108	0
109	0
110	0
111	0
112	0
113	2
114	0
116	0
121	0
123	0
125	2
126	0
127	15
128	1
135	0
139	0
140	61
141	36
142	3
143	0
183	0
