Mass Spectrum: 2-(Cyclohexylimino)-3,3-dimethylbutane
Formula: C12H23N
CAS: 72278-17-2
Molecular weight: 181
m/z	intensity
39	100
41	390
42	420
43	310
44	100
55	460
56	980
57	150
83	999
84	120
99	100
124	251
139	21
166	17
181	27
