Mass Spectrum: Chromium, [.mu.-[(1,2,3,4,5,6-.eta.:1',2',3',4',5',6'-.eta.)-1,1'-biphenyl]]bis[(1,2,3,4,5,6-.eta.)-1,1'-biphenyl]di-
Formula: C36H30Cr2
CAS: 72281-90-4
Molecular weight: 566
m/z	intensity
26	0
27	2
38	0
39	3
50	51
51	12
52	999
53	106
54	26
62	2
63	8
64	5
65	2
74	4
75	4
76	22
77	11
78	2
84	0
86	1
87	2
88	1
89	3
90	0
91	5
92	3
98	1
99	0
100	1
101	1
102	6
103	0
104	17
105	6
106	1
110	0
111	0
113	0
114	0
115	7
116	0
117	0
122	0
123	0
124	0
125	0
126	5
127	5
128	9
129	3
130	1
131	0
137	0
139	3
140	0
141	0
150	3
151	13
152	42
153	67
154	169
155	18
156	1
157	0
165	0
167	0
177	0
178	0
179	0
180	5
181	0
203	1
204	26
205	26
206	511
207	127
208	26
209	2
226	0
228	0
230	0
255	0
256	3
257	7
258	5
259	2
260	0
283	4
350	0
358	35
360	638
361	239
362	59
363	9
364	0
408	2
410	61
411	29
412	519
413	246
414	84
415	18
416	2
464	0
465	0
562	0
564	14
565	2
566	130
567	83
568	31
569	7
570	1
