Mass Spectrum: N-(5-Chloro-2-hydroxyphenyl)dodecanamide
Formula: C18H28ClNO2
CAS: 72298-74-9
Molecular weight: 325
m/z	intensity
34	63
36	25
37	25
38	37
40	131
41	943
43	999
44	361
46	7
48	15
49	19
50	52
51	34
53	73
55	416
57	538
60	164
61	23
63	44
64	18
65	24
66	14
67	62
69	173
70	85
71	155
73	154
75	16
77	36
78	34
79	30
80	24
81	46
83	114
84	49
85	75
87	33
88	12
90	21
91	30
92	11
93	12
94	9
95	29
96	24
97	46
98	33
99	15
100	12
101	18
102	8
104	8
105	12
106	6
107	9
108	10
109	25
110	10
111	16
112	31
113	13
115	34
116	8
118	14
119	16
120	7
121	7
122	9
123	7
124	5
125	8
127	6
128	6
129	32
135	6
139	6
141	10
143	464
144	49
145	120
146	17
149	9
151	6
152	8
153	6
156	7
157	17
167	36
168	16
169	97
170	21
171	34
172	5
183	36
184	6
185	5
200	17
209	50
211	16
222	9
223	9
307	31
308	7
309	9
325	33
326	13
327	9
328	6
