Mass Spectrum: Neomenthylamine
Formula: C10H21N
CAS: 7231-40-5
Molecular weight: 155
m/z	intensity
39	41
40	32
41	95
42	45
43	123
44	57
45	11
52	7
53	22
54	16
55	70
56	95
57	16
65	10
67	34
68	14
69	41
70	999
71	51
73	16
77	13
79	11
81	52
82	19
84	36
85	24
91	8
93	6
94	8
95	41
96	14
98	58
99	8
112	12
113	8
123	11
135	10
138	40
140	34
155	41
