Mass Spectrum: Iron, tetracarbonyl[(6,7-.eta.)-3-oxabicyclo[3.2.0]hept-6-ene-2,4-dione]-
Formula: C10H4FeO7
CAS: 72339-50-5
Molecular weight: 292
m/z	intensity
27	5
28	999
29	13
30	2
32	10
37	0
38	3
39	10
40	0
41	0
42	1
43	0
44	33
45	1
49	2
50	35
51	51
52	295
53	21
54	14
55	1
56	252
57	7
58	0
64	0
66	0
68	3
69	0
70	1
71	0
73	0
76	1
77	4
78	15
79	4
80	54
81	21
82	211
83	8
84	123
85	4
86	1
90	1
91	0
94	2
95	0
96	4
97	1
98	2
100	1
103	0
105	0
106	11
107	4
108	107
109	6
110	12
112	137
113	6
114	1
119	0
120	0
122	9
123	0
124	146
125	9
126	1
134	2
136	24
137	2
138	8
140	122
141	7
142	1
147	0
150	0
152	9
153	0
162	0
164	5
166	4
168	74
169	5
170	1
178	5
179	0
180	80
181	7
182	0
196	0
206	15
207	2
208	253
209	23
210	4
221	0
234	5
236	85
237	8
238	1
262	1
264	20
265	3
