Mass Spectrum: (2S,4S)-(+)-Pentanediol
Formula: C5H12O2
CAS: 72345-23-4
Molecular weight: 104
m/z	intensity
14	4
15	36
16	2
17	4
18	18
19	54
26	10
27	110
28	13
29	88
30	3
31	52
32	1
35	4
36	25
37	9
38	15
39	60
40	24
41	169
42	489
43	407
44	47
45	999
46	22
47	13
50	1
51	1
53	6
55	8
57	8
58	25
59	17
60	6
61	9
63	54
65	1
67	3
69	14
70	1
71	219
72	9
73	3
84	2
85	3
86	19
87	3
89	48
90	1
