Mass Spectrum: Glycine, N-benzoyl-N-(2,2,3,3,3-pentafluoro-1-oxopropyl)-, methyl ester
Formula: C13H10F5NO4
CAS: 72347-42-3
Molecular weight: 339
m/z	intensity
43	12
44	12
49	24
50	84
59	12
69	12
76	24
77	264
78	24
105	999
106	84
119	12
130	24
159	12
175	24
176	12
339	32
