Mass Spectrum: 2-(1-Methylcyclohexyloxy)-tetrahydropyran
Formula: C12H22O2
CAS: 72347-38-7
Molecular weight: 198
m/z	intensity
29	58
41	89
43	109
55	347
56	60
57	79
67	101
71	59
81	59
84	89
85	999
86	60
96	199
97	699
98	69
198	19
