Mass Spectrum: .alpha.-D-Glucofuranose, 6-O-(trimethylsilyl)-, cyclic 1,2:3,5-bis(butylboronate)
Formula: C17H34B2O6Si
CAS: 72347-48-9
Molecular weight: 384
m/z	intensity
30	27
31	23
35	13
36	48
37	18
38	40
39	106
40	42
41	211
42	82
43	321
44	266
45	236
46	17
47	117
48	18
49	27
50	27
51	26
52	28
53	53
54	40
55	233
56	100
57	138
58	40
59	128
60	27
61	46
62	13
63	22
64	12
65	40
66	31
67	41
68	41
69	92
70	116
71	76
72	40
73	933
74	116
75	778
76	55
77	93
78	33
79	31
81	79
82	72
83	260
84	50
85	64
86	32
87	35
88	21
89	74
90	16
91	49
92	19
93	37
94	30
95	41
96	59
97	135
98	35
99	84
100	47
101	160
102	30
103	742
104	83
105	74
106	17
107	12
108	23
109	51
110	41
111	71
112	40
113	53
114	32
115	48
116	42
117	999
118	144
119	93
120	17
122	20
123	37
124	38
125	69
126	106
127	162
128	32
129	501
130	72
131	90
132	20
133	40
134	19
135	29
136	17
137	32
138	112
139	409
140	51
141	38
142	28
143	142
144	34
145	71
147	54
148	13
149	15
150	12
151	31
152	44
153	58
154	31
155	55
156	43
157	158
158	54
159	157
160	31
161	24
163	20
164	27
165	52
166	36
167	40
168	37
169	50
170	36
171	50
172	22
173	32
174	28
176	11
177	22
178	19
179	23
180	45
181	147
182	28
183	32
184	28
185	46
186	33
187	63
188	21
189	19
191	20
192	24
193	71
194	26
195	23
196	14
197	24
198	30
199	26
200	28
201	53
202	40
203	104
204	27
205	22
207	20
208	18
209	38
210	46
211	25
212	62
213	261
214	47
215	30
216	14
219	13
221	19
222	27
223	21
224	21
225	43
226	26
227	28
228	32
229	71
230	28
231	11
234	13
235	20
236	22
237	23
238	22
239	40
240	83
241	37
242	33
243	74
244	19
245	11
247	12
251	16
252	22
253	32
254	25
255	44
256	22
257	23
258	30
259	17
263	20
264	22
265	13
266	17
267	38
268	14
269	16
271	14
277	25
278	12
281	19
282	26
284	14
285	33
296	23
297	28
299	13
300	16
313	19
327	11
341	12
368	26
369	38
370	17
