Mass Spectrum: (3aR,4R,8R,8aS)-3a,4,8a-Trimethyl-7-methylenedecahydro-4,8-methanoazulene-rel-
Formula: C15H24
CAS: 72346-55-5
Molecular weight: 204
m/z	intensity
18	3
26	1
27	25
29	38
38	3
39	98
40	18
41	227
42	13
43	63
49	2
50	12
51	34
52	24
53	134
54	19
55	263
56	18
57	53
63	13
64	6
65	125
66	41
67	196
68	29
69	217
70	9
71	29
74	2
76	5
77	312
78	67
79	430
80	154
81	677
82	67
83	11
84	15
85	34
86	4
89	4
90	2
91	301
92	68
93	970
94	571
95	706
96	999
97	170
98	14
99	8
100	2
102	3
103	30
104	12
105	139
106	120
107	251
108	978
109	343
110	33
111	435
112	38
113	7
115	45
116	19
117	44
118	6
119	117
120	33
121	75
122	27
123	48
124	9
125	2
126	2
127	7
128	15
129	17
130	7
131	16
134	21
135	10
136	45
137	36
138	6
141	2
142	2
143	3
144	7
145	12
146	4
147	23
148	23
159	12
160	5
161	74
162	18
163	7
175	26
176	13
177	1
188	2
189	59
190	13
191	2
204	12
