Mass Spectrum: 2-Keto-3-methylene-5-methyltetrahydrothiophene
Formula: C6H8OS
CAS: 72359-73-0
Molecular weight: 128
m/z	intensity
27	431
29	71
38	115
39	689
40	999
41	459
42	103
45	316
53	505
58	284
59	289
60	299
66	412
67	367
68	825
73	24
85	135
91	23
95	49
99	39
100	45
113	148
127	30
128	907
129	149
130	51
