Mass Spectrum: 2-Furanone, 3-amino-4-chloro-
Formula: C4H4ClNO2
CAS: 72361-12-7
Molecular weight: 133
m/z	intensity
38	31
39	39
40	128
41	118
42	92
43	32
44	274
47	29
48	39
49	57
51	69
52	139
53	60
54	243
61	59
63	29
68	28
70	296
75	69
76	208
77	39
78	97
88	406
89	32
90	128
98	999
99	59
104	52
105	13
106	19
107	11
132	28
133	726
134	44
135	269
136	13
