Mass Spectrum: Pentanedioic acid, 3-oxo-, tris(trimethylsilyl) ester
Formula: C14H30O5Si3
CAS: 72361-20-7
Molecular weight: 362
m/z	intensity
14	4
15	13
17	9
18	36
27	5
28	54
29	11
31	5
32	6
39	20
43	59
44	39
45	190
46	13
47	33
53	6
55	16
57	10
58	12
59	28
60	6
61	22
66	6
67	117
68	8
69	41
70	6
71	7
72	44
73	999
74	93
75	192
76	14
77	10
82	7
85	8
97	9
99	54
100	7
101	9
111	10
113	14
115	9
116	17
117	15
119	7
128	7
131	28
133	73
134	11
135	11
141	29
143	77
144	9
147	396
148	64
149	69
150	9
151	8
156	13
157	23
163	15
173	9
175	3
181	2
183	44
184	8
185	9
189	11
191	19
192	5
204	45
205	11
207	7
215	13
217	9
221	19
222	5
229	12
231	97
232	21
233	10
244	77
245	20
246	8
257	133
258	29
259	17
272	35
273	18
274	6
303	30
304	11
305	9
347	200
348	61
349	31
350	7
362	22
363	7
