Mass Spectrum: 1,3-Dioxolane, 4-(2-furanyl)-2-phenyl-
Formula: C13H12O3
CAS: 72361-05-8
Molecular weight: 216
m/z	intensity
27	150
28	48
29	90
39	160
40	45
43	100
44	45
50	170
51	300
52	250
53	360
55	65
63	65
65	90
66	50
69	60
77	680
78	105
79	60
80	110
81	710
82	85
83	60
84	60
89	75
90	340
91	330
92	280
93	50
94	550
95	40
105	999
106	540
110	980
111	100
119	510
120	560
186	200
215	40
216	180
