Mass Spectrum: Methanone, [2,4-dimethyl-7-(1-methylethyl)azulenyl]phenyl-
Formula: C22H22O
CAS: 72361-25-2
Molecular weight: 302
m/z	intensity
15	24
18	21
27	206
28	24
29	132
39	112
41	85
43	82
50	110
51	500
52	81
53	84
55	76
57	24
59	14
62	21
63	81
64	18
65	51
74	17
75	26
76	26
77	382
78	57
79	16
85	14
86	17
87	51
88	44
89	81
90	14
91	120
92	16
95	16
96	16
97	20
98	20
99	20
100	20
101	74
102	55
103	41
104	21
105	999
106	106
107	28
108	28
109	28
111	17
113	52
114	48
115	170
116	95
117	20
126	28
127	55
128	74
129	27
137	12
139	79
140	25
141	76
142	24
143	17
149	14
150	38
151	82
152	280
153	163
154	54
155	54
156	23
157	23
163	69
164	68
165	425
166	188
167	198
168	79
169	43
175	17
176	54
177	51
178	103
179	85
180	44
181	110
182	160
183	52
187	20
188	17
189	71
190	21
191	26
195	23
196	21
197	26
201	14
202	54
203	33
204	24
205	17
209	20
210	18
211	27
213	16
215	52
216	23
217	17
218	17
219	17
225	50
226	23
227	17
228	23
229	28
230	17
231	14
239	14
243	18
244	17
245	23
251	14
252	24
253	24
254	24
255	17
256	20
257	33
258	27
259	282
260	78
261	16
269	24
270	31
271	71
272	78
273	144
274	50
284	20
285	47
286	41
287	590
288	299
289	81
301	110
302	564
303	136
304	21
