Mass Spectrum: D-Isoleucine, N-acetyl-, TMS derivative
Formula: C11H23NO3Si
CAS: 72361-03-6
Molecular weight: 245
m/z	intensity
14	5
15	51
18	30
26	6
27	40
28	83
29	102
30	170
31	7
39	29
40	6
42	131
43	42
44	463
45	145
46	11
47	66
53	9
54	10
55	20
56	62
57	94
58	31
59	34
60	39
61	50
67	7
68	9
69	87
70	41
71	24
72	41
73	451
74	59
75	351
76	28
77	20
82	23
84	26
85	14
86	999
87	76
88	6
89	7
91	12
96	24
97	15
98	9
99	139
100	20
101	6
102	7
103	8
104	4
110	4
112	6
116	106
117	26
118	11
126	15
127	29
128	725
129	66
130	47
131	24
132	14
143	6
145	9
146	108
147	27
148	8
156	9
158	9
160	6
171	32
172	172
173	35
174	11
180	5
186	42
187	7
188	12
189	20
201	31
202	9
230	171
231	30
232	9
245	4
246	6
