Mass Spectrum: 2-(4-Hydroxy-3-methoxyphenyl)acetamide, 2TMS derivative
Formula: C15H27NO3Si2
CAS: 72361-06-9
Molecular weight: 325
m/z	intensity
73	999
75	631
89	39
93	17
100	19
116	27
135	22
137	12
149	39
162	39
163	32
164	25
165	31
179	671
190	123
193	79
195	95
205	87
209	319
210	439
211	93
223	379
235	239
238	191
253	579
254	105
255	31
310	63
311	21
312	15
325	67
326	25
327	8
