Mass Spectrum: Prosta-5,13-dien-1-oic acid, 9-(methoxyimino)-11,15-bis[(trimethylsilyl)oxy]-, trimethylsilyl ester, (8.xi.,12.xi.)-
Formula: C30H59NO5Si3
CAS: 72377-56-1
Molecular weight: 597
m/z	intensity
40	4
41	52
42	11
43	111
44	19
45	74
46	4
47	19
53	11
54	11
55	104
56	11
57	19
58	11
59	52
60	7
61	22
65	7
66	11
67	115
68	15
69	33
70	7
71	41
72	30
73	999
74	148
75	370
76	30
77	37
78	15
79	89
80	37
81	93
82	11
83	19
84	7
85	11
86	7
87	4
88	4
89	81
90	7
91	85
92	30
93	67
94	22
95	26
96	4
97	11
98	7
99	41
100	7
101	48
102	7
103	74
104	22
105	74
106	89
107	33
108	7
109	26
110	7
111	11
113	7
114	4
115	19
116	41
117	93
118	30
119	52
120	44
121	22
122	7
123	7
124	11
125	7
126	7
127	11
128	11
129	126
130	63
131	156
132	41
133	274
134	44
135	30
136	11
137	7
138	4
139	7
140	4
141	11
142	48
143	44
144	22
145	70
146	22
147	122
148	41
149	37
150	11
151	15
152	7
153	11
154	11
155	37
156	15
157	19
158	11
159	19
160	7
161	22
162	19
163	15
164	7
165	7
166	7
167	30
168	19
169	37
170	11
171	22
172	7
173	96
174	19
175	15
176	7
177	4
178	7
179	11
180	15
181	19
182	15
183	26
184	7
185	11
186	11
187	15
188	11
189	11
190	7
191	15
192	7
193	11
194	19
195	19
196	11
197	15
198	11
199	48
200	19
201	11
202	19
203	19
204	30
205	11
206	11
209	7
210	7
211	7
212	19
213	7
214	7
215	7
216	7
217	41
218	15
219	11
220	7
221	15
222	7
223	11
224	11
225	740
226	152
227	52
228	7
229	4
230	7
231	4
232	4
233	4
234	4
235	7
236	7
237	19
238	33
239	11
240	4
241	4
242	4
243	44
244	15
245	15
246	11
247	7
248	4
249	4
250	7
251	22
252	19
253	7
254	7
255	4
256	4
257	4
261	4
262	4
263	26
264	11
265	7
266	4
268	4
271	4
272	7
273	7
274	4
276	7
277	7
278	19
279	7
280	4
283	15
284	4
287	11
288	7
289	4
290	4
291	4
292	4
294	4
295	7
296	15
297	4
302	4
304	4
307	4
308	26
309	19
310	7
311	11
312	4
313	15
314	7
315	4
316	4
318	7
319	7
320	4
323	4
324	7
325	63
326	26
327	11
328	4
332	4
333	4
334	52
335	19
336	7
339	4
348	15
349	4
350	4
351	4
352	7
353	244
354	74
355	33
356	15
357	4
358	4
363	4
364	7
366	11
367	7
368	48
369	15
370	11
371	4
376	4
378	7
379	4
380	4
381	4
386	15
387	4
388	4
392	4
393	4
394	4
396	4
398	7
399	4
404	7
405	4
406	7
407	4
408	4
409	7
410	4
417	7
418	4
422	7
423	15
424	133
425	52
426	19
427	4
436	19
437	7
438	22
439	7
440	4
447	4
448	4
450	4
452	7
453	4
460	7
461	4
464	4
466	4
474	7
475	7
476	74
477	33
478	15
479	4
492	7
493	4
494	7
496	4
507	70
508	30
509	11
510	4
526	15
527	7
528	4
536	4
537	4
565	4
566	81
567	41
568	19
569	7
582	48
583	22
584	11
585	4
597	22
598	11
599	7
