Mass Spectrum: 2-n-Propylthiane, S,S-dioxide
Formula: C8H16O2S
CAS: 72385-41-2
Molecular weight: 176
m/z	intensity
33	150
53	50
54	60
55	560
56	440
57	80
67	90
68	90
69	999
71	30
81	30
82	30
84	140
85	10
95	20
97	10
109	30
110	40
111	130
112	20
134	190
135	10
147	7
159	70
160	7
161	3
176	90
177	9
178	4
