Mass Spectrum: 1,1-Dimethyl 2-phenylcyclopropane-1,1-dicarboxylate
Formula: C13H14O4
CAS: 72397-56-9
Molecular weight: 234
m/z	intensity
33	7
34	2
35	2
37	12
38	45
39	190
40	67
41	37
42	8
43	22
44	37
45	30
47	6
49	8
50	87
51	178
52	38
53	46
54	12
55	18
56	3
57	24
58	25
59	333
60	7
61	13
62	53
63	157
64	34
65	108
66	11
67	5
68	12
69	14
70	1
71	2
72	6
73	3
74	30
75	36
76	27
77	160
78	78
79	12
81	1
83	2
84	17
85	9
86	27
87	19
88	18
89	135
90	26
91	174
92	12
93	2
100	2
101	7
102	39
103	104
104	87
105	34
107	3
113	26
114	94
115	999
116	201
117	43
118	6
119	2
120	1
121	787
122	68
123	3
126	1
127	7
128	18
129	128
130	25
131	82
132	12
134	3
135	10
141	4
142	64
143	79
144	43
145	11
146	20
147	8
148	4
158	2
159	11
160	9
161	2
170	227
171	523
172	64
173	2
174	70
175	17
176	2
188	2
189	3
202	81
203	192
204	31
205	1
219	3
234	247
235	32
236	2
