Mass Spectrum: Isobutylmethylketone benzyloxime
Formula: C13H19NO
CAS: 72399-35-0
Molecular weight: 205
m/z	intensity
41	52
42	44
43	44
51	32
55	12
56	12
57	52
65	44
71	12
78	12
91	999
105	52
106	24
146	12
163	64
188	52
205	24
