Mass Spectrum: Pentanal O-benzyloxime
Formula: C12H17NO
CAS: 72399-21-4
Molecular weight: 191
m/z	intensity
39	20
40	10
41	30
42	9
43	29
50	10
51	19
52	19
54	20
55	19
63	9
65	29
77	19
78	10
79	20
90	9
91	999
92	70
107	10
108	10
149	69
