Mass Spectrum: Ethanol, 2-methoxyphenyl-
Formula: C9H12O2
CAS: 72403-22-6
Molecular weight: 152
m/z	intensity
14	2
15	21
17	3
18	11
26	2
27	16
28	15
29	29
30	2
31	10
32	3
37	1
38	6
39	32
40	3
41	6
42	2
43	16
44	2
45	69
46	2
47	2
49	1
50	26
51	81
52	19
53	13
55	2
59	2
61	2
62	6
63	18
64	4
65	28
66	3
73	1
74	8
75	7
76	7
77	318
78	52
79	455
80	30
81	1
89	13
90	7
91	109
92	10
93	5
102	3
103	31
104	10
105	102
106	17
107	999
108	77
109	5
119	4
120	11
121	517
122	46
123	3
134	1
135	5
152	74
153	7
