Mass Spectrum: 3,7-Dimethyloct-6-en-1-yl palmitate
Formula: C26H50O2
CAS: 7243-93-8
Molecular weight: 394
m/z	intensity
26	1
27	22
28	8
29	74
30	2
31	2
38	1
39	42
40	12
41	487
42	87
43	444
44	16
45	6
51	3
52	2
53	42
54	30
55	438
56	107
57	401
58	22
59	8
60	18
61	4
65	10
66	6
67	260
68	165
69	984
70	118
71	136
72	9
73	29
74	2
77	9
78	2
79	30
80	133
81	999
82	594
83	338
84	41
85	61
86	6
87	6
91	5
93	15
94	73
95	640
96	179
97	79
98	20
99	14
100	2
101	8
107	9
108	4
109	227
110	72
111	30
112	10
113	5
114	6
115	10
121	12
122	4
123	722
124	72
125	12
126	2
127	5
129	8
135	4
136	3
137	23
138	704
139	87
140	9
141	3
153	3
154	2
155	3
156	1
167	1
185	2
236	2
237	2
239	41
240	8
257	6
258	1
311	1
321	1
