Mass Spectrum: Tetrasiloxane, 3,5-diethoxy-1,1,1,7,7,7-hexamethyl-3,5-bis(trimethylsiloxy)-
Formula: C16H46O7Si6
CAS: 72439-78-2
Molecular weight: 518
m/z	intensity
45	58
59	45
73	999
74	85
75	52
87	10
133	12
147	33
325	19
327	140
328	42
329	29
341	36
342	14
415	27
416	12
473	17
503	84
504	38
505	27
