Mass Spectrum: 3-Ethoxy-1,1,1,7,7,7-hexamethyl-3,5,5-tris(trimethylsiloxy)tetrasiloxane
Formula: C17H50O7Si7
CAS: 72439-79-3
Molecular weight: 562
m/z	intensity
45	59
59	41
73	999
74	85
75	43
133	16
147	249
148	39
149	19
207	12
221	53
222	11
281	73
282	21
283	12
327	54
328	16
329	12
341	34
342	13
415	46
416	20
417	13
547	99
548	49
549	32
550	13
