Mass Spectrum: 3-Butoxy-1,1,1,7,7,7-hexamethyl-3,5,5-tris(trimethylsiloxy)tetrasiloxane
Formula: C19H54O7Si7
CAS: 72439-84-0
Molecular weight: 590
m/z	intensity
41	215
45	55
55	21
57	217
58	15
59	36
73	999
74	92
75	43
87	10
133	15
147	334
148	49
149	27
207	10
221	69
222	15
281	121
282	37
283	22
325	13
327	73
328	22
329	15
341	48
342	18
343	11
399	11
415	84
416	36
417	24
503	15
517	23
518	13
519	13
575	37
576	20
577	13
