Mass Spectrum: 2,2'-(Ethylenedithio)-diacetic acid
Formula: C6H10O4S2
CAS: 7244-02-2
Molecular weight: 210
m/z	intensity
12	6
13	6
14	37
15	18
16	9
17	4
18	19
24	3
25	8
26	56
27	132
28	89
29	33
30	6
31	54
32	25
33	19
34	33
35	16
36	5
37	2
38	2
39	20
40	3
41	33
42	84
43	97
44	239
45	570
46	310
47	452
48	29
49	20
50	3
51	3
52	1
53	5
54	9
55	9
56	4
57	20
58	80
59	237
60	255
61	161
62	15
63	22
64	28
65	3
66	4
67	12
68	3
69	4
70	1
71	8
72	11
73	412
74	80
75	55
76	30
77	384
78	32
79	26
80	11
81	32
82	5
83	2
84	2
85	4
86	4
87	5
88	3
89	4
90	29
91	21
92	114
93	23
94	7
95	28
97	3
98	2
99	2
100	8
101	20
102	3
103	10
104	11
105	272
106	55
107	25
108	18
109	5
110	3
111	2
112	2
113	1
115	2
116	3
117	5
118	999
119	390
120	69
121	21
122	5
123	29
124	2
125	3
126	18
127	2
130	2
131	1
132	3
133	14
134	8
135	3
136	4
137	1
146	1
148	21
149	3
150	9
151	14
152	19
153	3
154	5
164	10
165	11
166	5
167	2
174	2
178	2
192	42
193	4
194	4
208	1
210	40
211	4
212	4
