Mass Spectrum: 1,1-Dichloro-1-silacyclohexadiene-2,5
Formula: C5H6Cl2Si
CAS: 72443-09-5
Molecular weight: 164
m/z	intensity
36	100
38	32
39	166
40	5
63	276
64	14
65	97
66	999
67	58
68	1
98	29
99	1
100	20
101	1
102	3
103	0
104	0
128	95
129	10
130	34
131	3
132	1
164	81
165	8
166	55
167	5
168	10
169	1
170	0
