Mass Spectrum: Pyridine-3-carbonitrile, 4,6-dimethyl-2-(2-oxo-2-phenylethylthio)-
Formula: C16H14N2OS
CAS: 72456-88-3
Molecular weight: 282
m/z	intensity
33	4
34	9
36	1
37	3
38	9
39	58
40	81
41	21
42	14
43	14
44	41
45	32
46	14
47	4
48	3
50	36
51	135
52	20
53	10
54	3
55	6
56	3
57	7
58	4
59	3
60	2
61	2
62	6
63	20
64	15
65	43
66	10
67	4
68	2
69	9
70	7
71	6
72	3
73	6
74	6
75	11
76	27
77	490
78	52
79	8
80	1
81	3
82	4
83	7
84	2
85	1
86	1
87	1
88	3
89	11
90	8
91	33
92	5
93	2
94	3
95	4
96	3
97	2
98	0
99	0
100	1
101	0
102	9
103	15
104	54
105	999
106	82
107	8
109	3
110	1
111	1
112	0
113	1
114	0
115	0
116	1
117	2
118	5
119	5
120	4
121	5
122	4
123	2
124	0
125	0
126	0
127	3
128	1
129	2
130	0
131	32
132	9
133	10
134	11
135	1
136	2
137	1
138	0
139	0
140	0
141	0
143	0
145	0
146	0
147	0
148	2
149	4
150	3
151	0
152	0
153	0
155	0
156	0
161	1
162	1
163	1
164	4
165	0
166	0
167	0
171	0
175	2
177	168
178	20
179	8
180	2
195	0
205	2
206	0
207	0
219	0
220	0
221	1
222	0
224	0
235	0
237	0
238	0
239	2
240	0
247	0
249	12
250	2
251	0
253	1
254	2
255	0
263	0
265	2
266	0
267	0
280	0
281	6
282	71
283	14
284	4
285	0
