Mass Spectrum: Thiazole, 2-amino-4-(chloromethyl)-
Formula: C4H5ClN2S
CAS: 7250-84-2
Molecular weight: 148
m/z	intensity
39	27
40	27
41	25
42	42
43	155
44	61
45	281
46	25
47	19
48	4
49	12
51	9
52	8
53	8
54	11
55	9
56	16
57	16
58	8
59	11
60	38
61	11
62	8
63	4
64	6
66	4
67	21
68	11
69	114
70	37
71	334
72	33
73	32
74	11
75	6
76	12
77	3
78	4
79	11
80	6
81	6
82	6
83	4
84	6
85	8
86	56
87	6
88	6
91	11
92	3
101	11
103	11
104	3
105	30
106	17
107	11
108	6
111	3
112	4
113	999
114	105
115	53
116	6
117	6
119	4
147	4
148	337
149	22
150	122
151	8
152	4
