Mass Spectrum: N-Methyl-N-(m-tolyl)furfurylamine
Formula: C13H15NO
CAS: 72504-88-2
Molecular weight: 201
m/z	intensity
15	1
26	1
27	24
28	3
29	1
30	1
37	1
38	4
39	28
40	3
41	9
42	19
43	2
44	2
50	8
51	25
52	12
53	120
54	7
55	5
58	1
62	3
63	14
64	6
65	52
66	5
67	1
68	7
69	1
72	1
74	1
75	2
76	3
77	31
78	14
79	8
80	4
81	999
82	65
83	4
84	1
85	2
86	1
87	1
89	11
90	7
91	107
92	17
93	9
94	1
95	3
96	2
99	5
100	10
101	2
102	2
103	4
104	6
105	12
106	6
107	3
108	1
110	1
115	7
116	4
117	6
118	41
119	30
120	50
121	19
122	1
127	2
128	5
129	4
130	4
131	7
132	7
133	2
134	89
135	9
141	3
142	5
143	8
144	9
145	9
146	9
147	2
148	1
149	2
154	2
155	1
156	7
157	9
158	66
159	12
160	2
167	1
168	2
169	1
170	6
171	3
172	30
173	69
174	9
182	2
183	1
184	6
185	3
186	23
187	3
198	1
200	45
201	425
202	62
203	5
