Mass Spectrum: (Octylsulfanyl)acetic acid
Formula: C10H20O2S
CAS: 7252-60-0
Molecular weight: 204
m/z	intensity
29	234
30	11
35	16
36	3
37	6
39	346
40	89
41	999
42	414
43	766
44	90
45	344
46	155
47	338
48	21
49	19
50	9
51	17
52	7
53	73
54	73
55	813
56	483
57	290
58	28
59	61
60	171
61	243
62	18
63	25
64	7
65	13
67	79
68	88
69	911
70	302
71	87
72	8
73	70
74	54
75	80
77	160
78	5
79	14
81	21
82	38
83	158
84	151
85	23
87	91
88	11
89	20
90	2
91	5
92	78
93	55
94	3
95	6
97	15
99	2
101	35
102	3
103	5
104	1
105	34
106	2
107	1
110	3
111	23
112	43
113	4
115	9
119	7
129	1
143	4
145	725
146	78
147	51
148	4
149	2
159	116
160	13
161	5
186	2
204	159
205	16
206	5
