Mass Spectrum: 7-Hydroxy-4,6-dimethylnonan-3-one
Formula: C11H22O2
CAS: 72522-40-8
Molecular weight: 186
m/z	intensity
15	3
19	1
26	6
27	82
28	40
29	282
30	12
31	98
37	1
38	3
39	72
40	15
41	258
42	58
43	251
44	11
45	90
46	2
47	1
50	3
51	7
52	4
53	45
54	10
55	285
56	79
57	999
58	78
59	168
60	6
61	1
63	1
65	10
66	3
67	39
68	12
69	397
70	162
71	119
72	6
73	11
74	1
75	20
77	8
78	1
79	13
80	2
81	18
82	19
83	180
84	22
85	47
86	923
87	126
88	8
89	1
91	4
92	1
93	6
95	20
96	5
97	32
99	206
100	16
101	13
102	1
105	2
107	3
108	1
109	6
110	9
111	199
112	23
113	2
114	1
115	3
116	1
117	1
120	1
121	20
122	2
123	3
124	1
125	39
126	6
127	60
128	6
129	2
135	2
137	1
139	107
140	11
144	15
145	1
150	4
153	8
157	17
158	2
168	61
169	8
170	1
186	1
