Mass Spectrum: Methyl 2,4,6-tri-O-acetyl-3-acetamido-3-deoxy-.alpha.-D-altropyranoside
Formula: C15H23NO9
CAS: 72523-30-9
Molecular weight: 361
m/z	intensity
55	33
56	57
58	59
59	329
60	349
61	69
68	72
69	62
70	53
71	33
72	92
73	58
74	199
80	36
81	36
83	81
85	109
86	209
87	39
88	59
96	119
97	99
98	129
99	49
100	39
101	999
102	439
103	75
109	79
110	39
111	39
112	59
114	129
115	309
116	119
122	39
125	62
126	149
127	79
128	159
129	39
130	36
138	549
139	389
140	159
143	199
144	209
145	33
154	69
156	79
157	39
167	69
168	249
169	89
181	249
182	49
186	69
196	39
199	33
200	69
201	3
202	8
209	33
210	14
214	9
216	19
228	77
229	17
241	109
242	69
243	16
244	3
246	3
258	309
259	33
260	3
261	1
270	19
287	18
288	19
301	39
302	9
318	1
330	28
