Mass Spectrum: Benzyl 2-p-toluenesulfonyl-.beta.-d-arabinoside
Formula: C19H22O7S
CAS: 7252-07-5
Molecular weight: 394
m/z	intensity
41	44
42	1
43	27
44	11
45	14
47	1
50	8
51	19
52	5
53	2
55	6
56	1
57	11
60	7
61	4
62	1
63	14
64	9
65	68
66	2
69	5
71	7
73	64
74	3
75	2
77	45
78	6
79	15
81	8
85	27
86	1
89	27
91	999
92	90
93	3
97	7
98	13
101	1
103	11
105	7
106	1
107	26
108	8
115	11
116	10
118	4
119	15
121	1
122	3
131	22
133	38
134	9
139	8
140	1
155	128
156	9
157	7
165	4
166	1
167	7
173	40
174	2
175	5
179	7
181	2
182	1
202	1
215	1
216	2
221	4
227	8
239	7
240	2
243	106
244	12
272	3
273	12
274	2
275	1
285	7
286	4
303	2
317	2
394	1
