Mass Spectrum: N-(2-Thioethyl) N'-methyl urea
Formula: C4H10N2OS
CAS: 72545-68-7
Molecular weight: 134
m/z	intensity
27	80
29	42
30	999
31	55
35	35
42	48
43	45
44	101
45	61
47	73
56	18
57	14
58	241
59	58
60	29
61	73
70	3
74	7
75	110
76	16
77	38
78	4
87	268
88	21
100	3
101	15
103	8
104	5
134	103
135	14
136	6
137	1
