Mass Spectrum: Cyclohexanemethanol, 3,3-dimethyl-2-(3-methyl-1-butenyl)-
Formula: C13H24O2
CAS: 72541-28-7
Molecular weight: 212
m/z	intensity
26	1
27	22
28	6
29	31
30	0
31	10
38	0
39	28
40	1
41	122
42	6
43	398
44	6
45	32
46	0
47	0
49	0
50	1
51	5
52	3
53	26
54	5
55	103
56	15
57	18
58	25
59	8
60	1
61	1
62	1
63	3
64	1
65	12
66	6
67	112
68	34
69	146
70	9
71	123
72	7
73	3
74	3
75	0
76	1
77	26
78	6
79	41
80	8
81	87
82	63
83	40
84	16
85	88
86	6
87	2
89	1
90	0
91	32
92	11
93	133
94	36
95	96
96	15
97	10
98	6
99	2
100	1
101	0
102	0
103	2
104	1
105	18
106	11
107	206
108	63
109	999
110	95
111	62
112	10
113	5
114	1
115	1
116	0
117	2
118	1
119	13
120	8
121	187
122	31
123	30
124	38
125	19
126	4
127	9
128	3
129	1
130	1
132	0
133	7
134	7
135	13
136	270
137	39
138	5
139	23
140	5
141	2
142	1
143	1
144	0
145	2
146	0
147	15
148	5
149	8
150	3
151	37
152	8
153	3
154	0
155	1
159	1
160	1
161	31
162	4
163	2
164	1
165	21
166	4
167	1
168	1
169	2
170	0
171	0
173	0
175	0
176	14
177	5
178	1
179	25
180	3
181	0
192	1
193	1
194	177
195	25
196	2
197	1
210	1
212	1
