Mass Spectrum: Diazene, 1-cyclohexyl-2-methoxy-, 1-oxide
Formula: C7H14N2O2
CAS: 72553-41-4
Molecular weight: 158
m/z	intensity
27	70
28	30
29	70
30	40
41	390
42	30
43	30
53	40
54	80
55	999
56	50
67	160
81	100
82	160
83	990
84	70
127	220
128	30
141	120
158	120
159	10
