Mass Spectrum: 2-Pipecoline-1-dithiocarbamate
Formula: C7H13NS2
CAS: 7256-21-5
Molecular weight: 175
m/z	intensity
12	7
14	2
15	31
16	1
26	12
27	93
28	44
29	61
30	182
31	2
32	61
33	1
34	3
37	3
38	33
39	73
40	14
41	109
42	277
43	176
44	89
45	2
46	4
50	4
51	7
52	6
53	18
54	23
55	77
56	364
57	118
58	34
59	1
63	1
64	9
65	3
66	3
67	15
68	15
69	23
70	127
71	82
72	4
76	596
77	16
78	57
79	3
80	6
81	8
82	18
83	6
84	999
85	58
86	1
93	3
94	2
95	1
96	8
97	7
98	97
99	124
100	9
110	1
143	1
