Mass Spectrum: Pivalic acid, 2-methylphenyl ester
Formula: C12H16O2
CAS: 72569-05-2
Molecular weight: 192
m/z	intensity
26	8
27	72
28	14
29	110
30	3
39	95
40	23
41	167
42	25
43	7
50	20
51	47
52	37
53	35
54	2
55	25
56	14
57	810
58	40
59	3
62	4
63	19
64	4
65	27
66	13
67	4
69	15
70	7
71	2
75	5
76	3
77	90
78	41
79	71
80	27
81	3
85	174
86	10
87	4
89	10
90	32
91	45
92	3
94	13
102	2
103	3
105	3
106	11
107	113
108	999
109	86
110	5
149	22
150	2
192	86
193	9
