Mass Spectrum: Pyrrole-3-carboxylic acid, 5-iodo-2-formyl-4-methyl-, benzyl ester
Formula: C14H12INO3
CAS: 72562-15-3
Molecular weight: 369
m/z	intensity
33	18
37	3
38	10
39	33
40	44
41	13
42	2
44	5
45	0
49	5
50	47
51	118
52	117
53	49
54	5
55	3
61	1
62	5
63	26
64	24
65	153
67	30
68	34
69	2
71	0
74	1
75	7
76	13
77	53
78	54
79	106
81	29
82	1
86	4
88	1
89	46
91	999
92	80
93	5
94	1
95	6
96	0
103	0
104	5
105	16
106	52
107	48
108	26
109	3
115	2
116	1
126	0
127	11
128	9
129	1
133	10
134	8
135	8
136	6
137	2
140	2
141	6
142	0
151	9
152	15
153	2
154	13
155	2
165	1
166	4
167	5
168	8
169	5
179	13
180	2
181	1
182	0
183	1
184	0
195	0
196	1
198	1
199	0
204	22
205	2
206	8
207	0
212	0
219	0
223	0
224	11
232	3
233	54
234	42
235	134
242	3
243	1
250	4
257	0
260	484
261	49
262	69
263	104
264	7
274	0
278	901
279	73
280	7
322	0
323	1
340	0
351	42
352	6
353	0
369	145
370	21
371	1
