Mass Spectrum: 4H-Pyrano[3,4-d]thiazol-4-one, 6,7-dihydro-
Formula: C6H5NO2S
CAS: 72579-00-1
Molecular weight: 155
m/z	intensity
41	83
42	31
43	42
44	31
45	836
46	42
47	52
49	20
50	42
51	48
52	52
53	63
54	20
55	42
56	42
57	63
58	58
59	20
64	20
65	20
66	24
67	52
68	52
69	167
70	146
71	131
72	31
73	20
75	20
78	20
79	20
82	42
83	31
84	28
85	20
86	27
91	20
96	20
97	836
98	83
99	52
125	999
126	123
127	46
154	58
155	386
156	39
