Mass Spectrum: Benzamide, N-methyl-N-[4-(1-pyrrolidinyl)-2-butynyl]-
Formula: C16H20N2O
CAS: 72570-06-0
Molecular weight: 256
m/z	intensity
42	361
43	65
44	31
45	8
46	1
49	2
50	47
51	172
52	62
53	74
54	38
55	77
56	24
57	20
58	14
59	2
60	5
61	2
62	3
63	7
64	6
65	21
66	46
67	33
68	58
69	46
70	923
71	63
72	6
73	7
74	10
75	11
76	32
77	569
78	56
79	22
80	52
81	43
82	45
83	33
84	68
85	9
86	3
87	2
88	1
89	5
90	2
91	21
92	13
93	51
94	24
95	14
96	9
97	6
98	4
99	3
100	2
101	2
102	4
103	17
104	9
105	999
106	98
107	14
108	131
109	14
110	18
111	5
112	2
113	3
114	4
115	21
116	12
117	8
118	414
119	39
120	232
121	408
122	113
123	57
124	8
125	2
126	2
127	10
128	23
129	18
130	13
131	6
132	3
133	3
134	22
135	14
136	12
137	4
138	5
139	4
140	1
141	5
142	5
143	7
144	21
145	6
146	11
147	3
148	22
149	12
150	4
151	25
152	4
153	2
154	2
155	3
156	18
157	13
158	26
159	8
160	4
161	1
162	2
163	1
164	7
165	4
166	0
167	3
168	4
169	2
170	9
171	5
172	10
173	3
174	5
175	7
176	1
177	1
178	1
179	2
180	1
181	1
182	3
183	3
184	35
185	30
186	327
187	318
188	42
189	4
190	1
191	1
192	1
193	1
194	0
195	1
196	3
197	1
198	5
199	7
200	4
201	2
202	1
203	1
205	0
206	1
207	1
208	0
209	0
210	1
211	1
212	4
213	11
214	3
215	1
216	0
217	0
218	0
219	1
220	1
221	1
222	0
223	0
224	2
225	1
226	1
227	3
228	2
229	3
230	1
231	0
234	0
236	0
237	0
238	0
239	1
240	0
241	4
242	2
243	1
244	0
246	0
252	0
253	1
254	1
255	6
256	31
257	7
258	1
