Mass Spectrum: 2H-1-Benzopyran-4,7-diol, 3,4-dihydro-2-phenyl-
Formula: C15H14O3
CAS: 72594-23-1
Molecular weight: 242
m/z	intensity
77	142
78	140
91	95
103	148
104	999
105	485
115	73
123	68
136	53
137	918
138	670
139	95
147	495
152	91
165	108
223	775
224	860
225	177
226	91
242	652
243	135
