Mass Spectrum: 5-Amino-2-[2,2,2-trifluoroethoxy]pyridine
Formula: C7H7F3N2O
CAS: 72617-82-4
Molecular weight: 192
m/z	intensity
41	56
42	16
43	21
44	17
45	11
47	17
48	5
49	28
50	28
51	77
52	323
53	342
54	999
55	138
56	16
57	16
60	6
61	47
62	6
63	70
64	231
65	81
66	306
67	178
68	41
69	225
70	6
71	7
72	9
73	22
74	6
75	18
76	17
77	19
78	24
79	20
80	20
81	908
82	114
83	190
84	26
85	9
86	18
87	2
88	12
89	5
90	7
91	17
93	345
94	271
95	91
96	13
98	12
99	5
100	5
101	12
102	4
103	8
104	2
105	10
106	4
107	7
108	11
109	411
110	26
111	2
112	5
113	1
114	3
115	15
116	6
117	17
119	9
121	110
123	890
124	11
125	7
127	4
128	79
130	34
131	4
133	2
135	3
136	4
137	14
139	2
141	2
142	2
143	4
144	8
146	3
149	5
151	11
153	5
157	1
164	41
165	3
173	97
174	4
176	11
178	1
179	1
192	665
193	46
194	1
