Mass Spectrum: Androstane-3,11,17-triol, 3,17-diformate, (3.alpha.,5.alpha.,11.beta.,17.beta.)-
Formula: C21H32O5
CAS: 72654-91-2
Molecular weight: 364
m/z	intensity
55	999
213	220
228	40
239	110
254	130
257	30
259	60
272	30
274	40
285	150
300	380
331	30
346	40
364	1
