Mass Spectrum: Methyl (R)-(-)-3-hydroxy-2-methyl-propionate
Formula: C5H10O3
CAS: 72657-23-9
Molecular weight: 118
m/z	intensity
14	3
15	83
16	2
17	1
18	3
25	1
26	16
27	71
28	149
29	146
30	16
31	386
32	9
33	29
37	2
38	4
39	36
40	10
41	178
42	49
43	31
44	5
45	49
47	1
53	5
54	3
55	146
56	328
57	552
58	58
59	426
60	28
61	19
68	15
69	132
70	7
71	50
72	3
73	3
74	1
77	10
82	1
83	1
85	87
86	14
87	439
88	999
89	48
90	5
99	6
100	99
101	10
102	1
103	47
104	2
117	3
119	17
120	1
