Mass Spectrum: 2-Isopropyl-4-methylhex-2-enal
Formula: C10H18O
CAS: 72668-37-2
Molecular weight: 154
m/z	intensity
38	9
39	284
40	39
41	975
42	71
43	999
44	44
50	14
51	49
52	22
53	172
54	29
55	963
56	222
57	160
58	37
59	29
60	9
62	7
63	12
65	51
66	19
67	160
68	29
69	913
70	172
71	76
72	27
73	29
74	12
75	7
77	76
78	14
79	116
80	17
81	197
82	59
83	456
84	79
85	370
86	39
87	34
91	51
92	9
93	116
94	14
95	143
96	27
97	333
98	88
99	71
100	7
105	39
106	9
107	86
108	17
109	44
110	14
111	234
112	37
113	19
115	7
119	7
121	284
122	29
123	44
124	12
125	345
126	46
127	7
137	22
139	765
140	79
141	12
153	71
154	518
155	76
156	7
