Mass Spectrum: N-Acetyl-N-desmethylmethoxyphenamine
Formula: C12H17NO2
CAS: 72687-66-2
Molecular weight: 207
m/z	intensity
43	159
44	999
56	14
65	34
77	29
78	23
86	150
91	152
92	12
93	12
105	14
107	14
115	14
119	18
121	41
122	17
133	14
148	407
149	30
207	12
