Mass Spectrum: N-Acetyl-3-methoxyamphetamine
Formula: C12H17NO2
CAS: 72687-67-3
Molecular weight: 207
m/z	intensity
42	34
43	174
44	999
45	25
52	9
65	21
77	30
78	37
86	143
89	7
91	48
105	6
107	4
117	26
121	44
122	10
133	9
134	2
148	389
149	37
150	5
164	3
207	38
208	5
