Mass Spectrum: 2-Carbamoyl-4,6-dimethylpyridine
Formula: C8H10N2O
CAS: 72693-02-8
Molecular weight: 150
m/z	intensity
15	1
16	1
17	5
18	1
26	1
27	12
28	12
29	2
37	4
38	11
39	62
40	10
41	18
42	10
43	3
44	25
50	11
51	30
52	21
53	31
54	6
55	2
57	1
61	2
62	6
63	19
64	15
65	37
66	23
67	9
68	3
69	1
74	2
75	3
76	8
77	110
78	32
79	151
80	56
81	5
82	1
83	1
88	1
89	2
90	7
91	9
92	29
93	5
94	6
95	5
102	2
103	1
104	21
105	24
106	370
107	999
108	80
109	3
117	3
118	1
119	3
120	2
121	7
122	8
123	1
131	10
132	39
133	14
134	6
135	3
148	3
149	6
150	616
151	65
152	4
