Mass Spectrum: Thiobenzoic acid, S-n-butyl ester
Formula: C11H14OS
CAS: 7269-35-4
Molecular weight: 194
m/z	intensity
26	2
27	21
28	5
29	17
35	1
37	1
38	2
39	17
40	2
41	19
42	2
43	5
45	9
46	4
47	10
49	1
50	22
51	85
52	6
53	3
54	1
55	7
56	2
57	2
58	2
59	3
60	2
61	2
62	1
63	1
65	4
66	1
69	3
71	1
73	1
74	6
75	6
76	13
77	311
78	24
79	2
82	1
88	1
91	1
103	1
104	33
105	999
106	78
107	5
108	2
109	5
110	2
121	3
123	1
134	21
135	2
137	1
138	8
139	29
140	3
141	1
152	1
160	1
161	1
193	1
194	20
195	3
196	1
