Mass Spectrum: Propanoic acid, 2,2-dimethyl-3-oxo-3-(phenylamino)-
Formula: C11H13NO3
CAS: 72708-59-9
Molecular weight: 207
m/z	intensity
25	1
26	6
27	73
28	10
29	4
30	1
31	24
36	0
37	4
38	16
39	107
40	22
41	165
42	56
43	152
44	64
45	39
46	1
47	1
49	1
50	15
51	61
52	16
53	2
54	6
55	13
56	1
59	65
60	10
61	0
62	3
63	19
64	18
65	105
66	87
67	10
69	12
70	235
71	27
72	2
73	146
74	8
75	5
76	5
77	116
78	13
79	0
80	0
84	0
87	152
88	539
89	24
90	4
91	13
92	63
93	999
94	77
95	3
98	0
102	0
103	1
104	4
105	3
106	2
115	13
116	0
117	0
118	6
120	35
121	3
122	0
128	0
129	0
130	1
134	16
135	2
136	0
137	2
144	0
145	3
146	0
147	1
148	0
151	0
161	4
162	13
163	75
164	8
167	0
169	0
191	0
193	2
205	0
206	0
207	481
208	60
209	5
