Mass Spectrum: 1H-1,2,4-Triazole, 3-thiol-5-methyl-
Formula: C3H5N3S
CAS: 7271-44-5
Molecular weight: 115
m/z	intensity
13	1
14	1
15	9
25	1
26	21
27	56
28	26
29	18
30	6
32	9
33	3
34	1
38	2
39	3
40	9
41	15
42	118
43	5
44	9
45	21
46	7
47	17
52	2
53	3
54	1
55	41
56	422
57	79
58	15
59	30
60	20
61	2
64	1
70	4
71	2
72	1
73	2
74	114
75	3
76	5
82	3
83	3
84	7
85	5
86	2
113	2
114	11
115	999
116	57
117	48
118	2
