Mass Spectrum: 2-Hydroxy-3-methoxy-succinic acid, dimethyl ester
Formula: C7H12O6
CAS: 72718-99-1
Molecular weight: 192
m/z	intensity
25	2
26	21
27	68
28	88
29	361
30	72
31	331
33	279
34	4
39	10
40	2
41	32
42	50
43	76
44	58
45	826
46	17
47	89
48	2
50	2
51	2
53	8
54	6
55	12
56	7
57	27
58	18
59	249
60	11
61	15
65	2
68	2
69	34
70	11
71	82
72	86
73	811
74	248
75	292
76	23
77	171
78	8
79	2
81	3
82	2
83	9
84	3
85	37
86	2
87	18
88	9
89	152
90	24
91	15
92	2
93	3
94	1
95	3
96	1
97	4
98	1
99	4
100	9
101	29
102	8
103	999
104	812
105	153
106	13
109	1
110	2
111	1
113	14
114	2
115	8
116	4
117	15
118	6
119	28
120	1
131	5
132	5
133	275
134	16
135	6
