Mass Spectrum: Butane, 1,4-bis(5-thioxo-1,2,4-triazol-2-in-3-yl)-
Formula: C8H12N6S2
CAS: 7271-37-6
Molecular weight: 256
m/z	intensity
37	10
38	25
39	132
40	21
41	122
42	145
43	74
45	999
46	20
47	4
48	0
49	8
50	19
51	31
53	52
54	41
55	163
56	29
57	15
58	15
59	16
60	66
62	1
63	0
65	1
68	15
69	36
70	1
71	4
72	5
73	50
74	5
77	1
79	0
81	3
82	15
83	10
84	3
85	4
87	53
88	0
89	0
91	0
97	0
100	210
101	11
102	3
105	0
110	6
111	3
122	0
126	0
128	26
129	6
143	0
151	0
165	0
256	0
