Mass Spectrum: 2-(2-Hydroxy-2-p-methoxyphenylethyl)-6-methyl
Formula: C14H16N2O2
CAS: 72725-79-2
Molecular weight: 244
m/z	intensity
37	2
38	25
39	187
40	49
41	59
42	87
43	41
44	11
45	11
50	11
51	32
52	18
53	38
54	19
55	22
56	4
57	17
60	7
62	6
63	19
64	20
65	40
66	101
67	20
68	11
69	23
70	4
71	8
73	7
76	5
77	157
78	26
79	21
80	17
81	21
82	5
83	6
89	4
91	8
92	23
93	14
94	120
95	153
96	10
97	4
105	7
106	4
107	69
108	999
109	244
110	17
113	14
115	6
121	8
122	4
123	21
135	97
136	103
137	555
138	48
139	5
150	244
151	27
161	9
165	13
179	7
211	4
226	20
227	16
228	4
244	93
245	16
