Mass Spectrum: 2-(2-Hydroxy-2-p-methoxyphenylethyl)-5-methyl
Formula: C14H16N2O2
CAS: 72725-80-5
Molecular weight: 244
m/z	intensity
38	18
39	162
40	34
41	55
42	49
43	48
44	8
45	19
50	11
51	24
52	16
53	28
54	14
55	32
56	10
57	22
59	5
60	13
63	15
64	16
65	33
66	59
67	17
68	13
69	33
70	9
71	11
73	10
74	6
76	6
77	132
78	21
79	21
80	45
81	28
82	9
83	9
84	4
85	6
87	3
89	4
91	8
92	18
93	12
94	95
95	81
96	8
97	7
98	4
105	5
106	4
107	82
108	999
109	221
110	14
111	4
113	10
115	7
121	6
122	3
123	5
135	74
136	25
137	510
138	39
139	3
150	139
151	14
183	3
226	21
227	9
244	67
245	11
