Mass Spectrum: Phosphinous amide, N,N-dimethyl-P,P-bis(1-methylethyl)-
Formula: C8H20NP
CAS: 72740-05-7
Molecular weight: 161
m/z	intensity
27	55
28	16
29	12
30	26
32	1
33	3
34	0
35	0
36	0
37	1
38	2
39	27
40	6
41	87
42	60
43	100
44	63
45	31
46	11
47	31
48	6
49	6
50	0
51	0
52	0
55	5
56	2
57	21
58	6
59	14
60	76
61	16
62	8
63	1
64	0
65	0
66	0
67	0
68	0
69	11
70	2
71	8
72	4
73	16
74	21
75	66
76	999
77	35
78	0
80	0
82	0
83	2
84	1
85	1
86	1
87	1
88	1
89	5
90	8
91	1
92	15
97	0
99	0
100	1
101	2
102	4
103	7
104	2
108	0
109	0
112	0
113	0
114	1
115	1
116	12
117	12
118	198
119	40
120	1
124	0
125	0
127	0
129	0
130	0
133	0
134	2
135	0
145	7
146	0
147	0
151	0
154	4
155	0
156	4
158	4
159	2
160	19
161	135
162	13
163	0
