Mass Spectrum: 1H-Cycloprop[e]azulene, decahydro-1,1,7-trimethyl-4-methylene-
Formula: C15H24
CAS: 72747-25-2
Molecular weight: 204
m/z	intensity
26	11
27	213
29	30
38	9
39	276
41	999
42	50
43	234
44	7
45	5
50	14
51	69
52	37
53	226
54	32
55	502
56	23
57	40
58	9
59	4
62	4
63	18
64	12
65	125
66	44
67	465
68	49
69	623
70	35
71	12
73	5
75	4
76	4
77	271
78	88
79	514
80	121
81	547
82	150
83	89
84	8
89	5
91	676
92	173
93	704
94	284
95	274
96	104
97	26
102	5
103	32
104	20
105	577
106	199
107	568
108	199
109	196
110	23
111	5
115	39
116	14
117	60
118	18
119	451
120	184
121	495
122	142
123	53
124	7
127	5
128	12
129	17
130	7
131	34
132	19
133	441
134	133
135	272
136	64
137	10
141	7
145	19
146	16
147	289
148	206
149	88
150	16
159	12
160	17
161	811
162	148
163	24
175	64
176	32
189	277
190	37
204	483
