Mass Spectrum: Swainsonine
Formula: C8H15NO3
CAS: 72741-87-8
Molecular weight: 173
m/z	intensity
52	18
53	36
54	54
55	176
56	160
57	152
58	36
59	30
60	18
65	18
67	36
68	97
69	79
70	237
71	115
72	438
73	54
74	54
79	18
81	36
82	109
83	79
84	274
85	195
86	36
94	36
95	30
96	999
97	79
98	115
99	36
100	274
101	36
102	30
109	18
110	128
111	30
112	128
113	798
114	73
116	280
117	30
118	30
120	54
127	36
129	30
136	18
138	109
139	18
142	18
144	18
154	30
155	274
156	91
172	30
173	79
174	18
