Mass Spectrum: (R)-(+)-1-Amino-2-(methoxymethyl)pyrrolidine
Formula: C6H14N2O
CAS: 72748-99-3
Molecular weight: 130
m/z	intensity
14	0
15	24
16	2
17	4
18	21
26	7
27	46
28	57
29	55
30	41
31	17
32	1
33	2
38	2
39	39
40	8
41	161
42	32
43	93
44	23
45	74
46	1
50	0
51	2
52	1
53	8
54	8
55	22
56	24
57	31
58	7
59	0
65	1
66	1
67	11
68	148
69	15
70	22
71	18
72	1
80	3
81	0
82	6
83	19
84	5
85	999
86	47
87	1
97	4
98	2
99	1
130	30
131	2
