Mass Spectrum: 2-Butenoic acid, 3-methyl-, 3-methyl-2-butenyl ester
Formula: C10H16O2
CAS: 72779-06-7
Molecular weight: 168
m/z	intensity
27	27
29	40
39	89
40	27
41	221
42	24
50	9
51	20
53	86
54	20
55	160
56	17
67	182
68	289
69	489
70	32
82	31
83	999
84	56
85	75
100	30
101	56
122	12
123	64
124	8
125	31
126	8
153	21
168	41
169	4
