Mass Spectrum: Methyl 1-aminocyclopropanecarboxylate
Formula: C5H9NO2
CAS: 72784-42-0
Molecular weight: 115
m/z	intensity
15	60
16	1
25	3
26	36
27	100
28	527
29	143
30	128
31	26
32	4
33	31
37	9
38	20
39	66
40	34
41	64
42	100
43	16
44	52
45	55
46	1
50	2
51	14
52	56
54	999
55	852
56	992
57	69
58	4
59	65
60	20
61	1
66	1
67	3
68	7
70	8
71	1
72	20
80	1
83	614
84	41
85	3
86	4
87	4
88	2
100	544
101	25
102	3
114	19
115	38
116	2
