Mass Spectrum: Tolperisone
Formula: C16H23NO
CAS: 728-88-1
Molecular weight: 245
m/z	intensity
15	1
18	1
26	1
27	8
28	15
29	13
30	14
39	24
40	3
41	54
42	42
43	14
44	26
45	1
50	3
51	7
52	2
53	4
54	5
55	44
56	24
57	16
58	2
62	2
63	9
64	3
65	42
66	2
67	3
68	6
69	17
70	16
71	1
75	1
76	1
77	2
79	1
80	1
82	4
83	7
84	58
85	27
86	1
89	9
90	7
91	119
92	9
96	18
97	34
98	999
99	70
100	2
105	3
110	3
112	1
115	3
116	1
117	5
118	1
119	240
120	20
121	1
124	4
125	2
126	12
127	1
128	1
129	1
131	3
132	15
133	2
145	9
146	1
148	2
159	1
160	54
161	7
202	1
230	6
231	1
244	2
245	11
246	2
