Mass Spectrum: Dihydroartemisinin, 3-desoxy-
Formula: C15H24O4
CAS: 72807-92-2
Molecular weight: 268
m/z	intensity
41	253
43	999
44	28
45	31
47	72
53	91
55	283
56	18
57	97
58	55
59	10
60	3
61	10
63	4
65	37
67	131
68	42
69	138
70	18
71	73
72	4
73	8
74	2
75	1
77	87
79	154
80	7
81	157
82	31
83	72
87	4
88	10
89	2
91	109
93	185
94	67
95	108
96	26
97	47
98	12
99	13
100	11
101	2
103	8
105	99
106	57
107	172
108	51
109	85
110	25
111	37
112	25
113	7
114	5
115	7
116	1
117	15
119	59
120	30
121	104
122	55
123	116
124	96
125	38
126	6
127	3
128	3
129	5
131	37
133	116
134	42
135	118
136	84
137	29
138	15
139	15
140	15
141	6
142	2
143	3
144	1
145	19
147	96
149	118
151	492
152	58
153	13
154	2
155	2
157	4
159	4
161	34
162	97
164	968
165	518
166	58
167	9
169	218
170	19
171	3
173	3
175	100
176	18
177	6
179	60
180	47
181	9
182	5
183	0
189	12
190	14
191	6
193	22
194	20
195	3
197	30
198	2
199	1
203	2
204	2
207	38
208	44
209	6
210	2
219	24
222	415
223	56
224	7
226	74
227	10
228	0
231	0
233	2
239	0
251	19
252	3
266	0
267	1
268	2
