Mass Spectrum: 1,3-Cyclopentanedicarboxylic acid, 1,2,2-trimethyl-, dimethyl ester
Formula: C12H20O4
CAS: 7282-27-1
Molecular weight: 228
m/z	intensity
27	150
29	180
39	170
41	630
42	50
48	150
53	160
54	60
55	400
59	250
67	330
68	390
69	360
73	240
77	90
79	110
81	120
82	160
83	220
87	60
91	80
93	250
94	60
95	260
96	220
97	60
101	170
107	110
108	700
109	999
110	110
114	60
115	50
121	90
125	80
127	80
128	140
136	670
137	390
153	120
154	100
164	250
168	640
169	220
196	250
228	10
