Mass Spectrum: 2,5-Diphenyl-1,5-hexadiene
Formula: C18H18
CAS: 7283-49-0
Molecular weight: 234
m/z	intensity
32	23
38	1
39	58
40	4
41	10
42	0
43	2
44	0
50	9
51	66
52	14
53	14
54	0
55	2
56	0
57	2
58	0
59	0
62	2
63	23
64	7
65	64
66	4
67	1
69	2
70	0
71	1
72	1
73	1
74	2
75	8
76	17
77	156
78	61
79	11
80	0
81	0
82	0
83	1
84	0
85	1
86	0
87	3
88	2
89	31
90	3
91	333
92	27
93	0
94	0
95	2
96	1
97	1
98	0
100	0
101	12
102	55
103	97
104	270
105	36
106	2
107	1
108	3
109	2
110	0
111	0
112	0
113	4
114	6
115	492
116	105
117	192
118	21
119	1
120	0
122	0
125	0
126	3
127	30
128	118
129	366
130	999
131	113
132	5
133	0
137	0
138	0
139	3
140	1
141	41
142	42
143	201
144	23
145	0
148	0
149	0
150	0
151	2
152	8
153	7
154	4
155	14
156	46
157	11
158	0
159	0
163	1
164	0
165	8
166	1
167	1
176	1
177	1
178	14
179	6
180	1
181	0
183	0
187	0
188	0
189	6
190	5
191	14
192	3
193	2
194	0
196	0
197	0
199	0
200	0
201	1
202	14
203	18
204	20
205	22
206	9
207	1
212	0
213	1
214	0
215	7
216	2
217	4
218	3
219	43
220	7
221	0
222	0
226	0
227	0
228	0
231	0
232	1
233	3
234	184
235	35
236	2
