Mass Spectrum: Hydrazinecarbothioamide, 2-cyclopentylidene-
Formula: C6H11N3S
CAS: 7283-39-8
Molecular weight: 157
m/z	intensity
33	95
34	15
35	3
37	42
38	109
39	629
40	143
41	388
42	168
43	569
44	40
45	22
46	28
47	49
48	50
49	7
50	42
51	66
52	64
53	103
54	113
55	85
56	19
57	15
58	34
59	229
60	999
62	100
63	25
64	15
65	42
66	21
67	112
68	16
69	34
70	7
71	3
72	2
73	3
74	11
75	20
76	7
77	3
78	2
80	29
81	11
82	44
83	8
84	4
85	1
86	3
87	5
88	0
89	0
90	2
91	0
92	0
93	0
94	0
95	2
96	2
97	54
98	6
99	0
100	4
101	0
102	1
103	11
104	1
105	0
109	0
111	0
112	0
113	1
114	9
115	45
116	3
117	1
120	0
123	0
124	2
125	1
126	0
128	69
129	22
130	4
131	0
139	0
140	0
155	0
156	2
157	60
158	5
159	3
