Mass Spectrum: Benzene, (3,3-dimethyl-1-methylenebutyl)-
Formula: C13H18
CAS: 7283-47-8
Molecular weight: 174
m/z	intensity
27	44
28	7
29	167
30	3
32	1
37	1
38	3
39	76
40	8
41	232
42	10
43	14
44	0
45	0
50	16
51	62
52	14
53	15
54	2
55	14
56	4
57	999
58	43
59	0
61	0
62	5
63	20
64	6
65	25
66	3
67	2
69	2
70	2
71	4
72	0
73	1
74	6
75	10
76	14
77	97
78	52
79	9
80	2
81	4
82	0
83	0
85	0
86	1
87	2
88	1
89	11
90	2
91	71
92	7
93	1
95	0
101	3
102	27
103	73
104	10
105	54
106	5
113	1
114	3
115	85
116	27
117	104
118	577
119	62
120	31
121	3
125	0
126	1
127	7
128	22
129	17
130	5
131	12
132	11
133	1
139	1
140	0
141	6
142	3
143	5
144	2
145	1
146	1
152	0
153	0
155	0
157	0
159	40
160	5
173	0
174	52
175	7
