Mass Spectrum: Nickel, [1,1',1'',1'''-(.eta.4-1,3-cyclobutadiene-1,2,3,4-tetrayl)tetrakis[benzene]][(1,2,5,6-.eta.)-1,3,5,7-cyclooctatetraene]-
Formula: C36H28Ni
CAS: 72845-23-9
Molecular weight: 518
m/z	intensity
26	66
27	93
29	21
32	3
36	2
37	28
38	54
39	228
40	18
41	56
42	30
43	28
44	4
45	2
46	2
49	21
50	200
51	323
52	141
53	20
54	9
55	29
56	79
57	21
58	77
59	3
60	34
61	23
62	48
63	90
64	12
65	24
66	5
67	3
68	2
69	26
70	5
71	4
73	12
74	58
75	38
76	55
77	332
78	690
79	40
80	2
83	7
84	26
85	4
86	5
87	2
88	2
89	9
90	6
92	16
93	3
96	2
97	4
98	16
99	1
100	1
101	8
102	107
103	651
104	999
105	88
110	1
111	3
134	9
135	4
136	33
159	0
160	2
209	1
235	3
236	224
237	23
238	79
240	0
242	0
259	0
319	1
334	0
412	2
413	1
414	129
415	41
416	60
417	19
418	14
419	3
420	0
427	1
428	0
440	13
441	3
442	4
468	1
492	10
493	4
494	5
495	1
518	108
519	46
520	50
521	21
522	12
523	3
524	2
