Mass Spectrum: .alpha.-D-Xylo-Hex-5-enofuranose, 5,6-dideoxy-1,2-O-(1-methylethylidene)-
Formula: C9H14O4
CAS: 7284-07-3
Molecular weight: 186
m/z	intensity
43	499
53	10
55	100
56	10
57	170
58	35
59	999
60	35
69	100
70	80
71	100
72	15
73	20
81	10
82	15
83	25
85	10
99	16
100	15
101	25
111	30
115	120
128	10
129	35
130	10
171	50
186	1
187	1
