Mass Spectrum: (3-Dimethylaminopropyl)dipropylborane
Formula: C11H26BN
CAS: 72863-69-5
Molecular weight: 183
m/z	intensity
41	149
42	99
54	79
55	129
56	399
58	269
69	69
70	249
82	69
97	209
98	999
99	59
139	99
140	459
141	59
