Mass Spectrum: (3-Ethylaminopropyl)dibutylborane
Formula: C13H30BN
CAS: 72863-68-4
Molecular weight: 211
m/z	intensity
29	109
41	69
56	119
70	159
82	89
96	79
97	239
98	999
99	59
153	59
154	239
