Mass Spectrum: 1-Pentanamine, N-nitro-
Formula: C5H12N2O2
CAS: 72884-67-4
Molecular weight: 132
m/z	intensity
28	187
29	809
30	990
39	441
41	793
42	846
43	752
44	161
46	362
55	736
56	203
57	224
69	374
70	414
71	81
75	999
