Mass Spectrum: Ether, heptyl hexyl
Formula: C13H28O
CAS: 7289-40-9
Molecular weight: 200
m/z	intensity
26	5
27	80
28	49
29	143
30	5
31	15
32	1
33	1
36	1
39	55
40	11
41	262
42	136
43	812
44	32
45	24
50	2
51	5
52	1
53	12
54	16
55	225
56	343
57	999
58	40
59	5
60	1
64	0
65	2
66	2
67	16
68	45
69	151
70	180
71	26
72	1
73	3
74	0
77	2
78	1
79	8
81	6
82	11
83	95
84	84
85	407
86	26
87	3
91	2
94	1
96	2
97	83
98	65
99	33
100	4
101	3
103	6
111	0
115	10
129	4
