Mass Spectrum: Tricyclo[8.2.2.2(4,7)]hexadeca-4,6,10,12,13,15-hexaene-5-carboxaldehyde
Formula: C17H16O
CAS: 729-30-6
Molecular weight: 236
m/z	intensity
51	63
55	25
57	30
63	47
65	30
77	116
78	197
89	35
91	25
103	197
104	999
105	128
131	100
132	116
144	52
236	365
237	63
