Mass Spectrum: Methyl 6-O-acetyl-2,3,4-tri-O-methyl-.alpha.-D-mannopyranoside
Formula: C12H22O7
CAS: 72922-16-8
Molecular weight: 278
m/z	intensity
42	29
43	179
44	8
45	96
47	7
53	7
55	15
58	7
59	35
61	5
69	17
70	12
71	57
72	6
73	119
74	26
75	409
76	14
81	7
83	5
85	24
87	71
88	999
89	74
90	5
95	13
98	7
99	16
101	529
102	26
103	7
111	9
113	10
114	4
115	5
117	20
127	35
128	3
129	7
130	12
131	16
141	3
143	4
145	11
155	35
156	3
173	3
176	8
177	39
178	3
186	5
187	4
215	3
247	9
248	1
