Mass Spectrum: Methyl 4-O-acetyl-2,3-di-O-methyl-.alpha.-D-xylopyranoside
Formula: C10H18O6
CAS: 72922-13-5
Molecular weight: 234
m/z	intensity
40	6
41	94
42	28
43	759
44	28
45	199
46	4
47	13
53	12
54	9
55	30
56	12
57	25
58	28
59	46
60	3
61	33
68	7
69	86
70	9
71	189
72	17
73	219
74	299
75	999
76	33
77	4
83	86
84	66
85	64
86	10
87	159
88	869
89	46
97	5
98	3
99	46
100	66
101	209
102	11
103	30
104	1
105	3
111	15
112	3
113	7
114	51
115	38
116	56
117	9
118	1
127	1
128	2
129	84
130	6
131	4
132	1
133	1
141	1
142	61
143	71
144	5
145	3
159	1
161	3
171	4
172	0
202	28
203	30
