Mass Spectrum: 3,7-Dimethyloct-6-en-1-yl heptanoate
Formula: C17H32O2
CAS: 72934-17-9
Molecular weight: 268
m/z	intensity
27	47
29	84
39	81
40	20
41	642
42	104
43	457
45	11
53	75
54	29
55	418
56	99
57	195
58	12
60	27
65	15
67	431
68	262
69	832
70	96
73	19
77	16
79	34
80	77
81	999
82	673
83	227
84	22
85	103
86	7
87	16
89	10
94	65
95	785
96	190
97	34
101	12
109	308
110	73
111	26
112	8
113	178
114	18
123	820
124	88
131	25
137	24
138	390
139	44
