Mass Spectrum: Phenethyl palmitate
Formula: C24H40O2
CAS: 72934-12-4
Molecular weight: 360
m/z	intensity
27	4
28	1
29	12
39	7
40	1
41	50
42	12
43	78
44	3
45	1
50	1
51	4
52	1
53	4
54	4
55	53
56	12
57	56
58	4
59	1
60	5
61	1
63	2
64	1
65	9
66	1
67	8
68	4
69	27
71	28
72	2
73	7
74	1
76	1
77	20
78	13
79	23
80	2
81	7
85	13
86	1
87	1
89	1
90	1
91	22
92	7
93	2
95	6
98	4
99	2
101	1
102	2
103	22
104	999
105	348
106	27
107	2
109	3
115	1
121	2
122	1
129	1
135	1
137	1
164	1
239	11
240	2
