Mass Spectrum: Heptacosanal
Formula: C27H54O
CAS: 72934-03-3
Molecular weight: 394
m/z	intensity
27	13
29	64
39	19
41	323
42	60
43	625
44	144
45	41
53	17
54	68
55	536
56	133
57	866
58	43
66	90
67	329
68	417
69	470
70	163
71	496
72	58
79	31
80	54
81	393
82	999
83	601
84	99
85	261
86	31
94	30
95	393
96	745
97	465
98	79
99	62
108	23
109	267
110	253
111	236
112	32
113	35
122	30
123	212
124	184
125	93
126	28
137	114
138	113
139	44
151	24
152	60
153	18
165	18
166	30
180	27
194	23
222	29
236	29
250	26
264	26
278	31
291	10
292	21
306	28
319	13
320	35
321	8
333	12
334	23
347	9
348	60
349	17
350	15
368	13
376	222
377	75
378	11
394	25
