Mass Spectrum: trans-Cinnamyl tiglate
Formula: C14H16O2
CAS: 72934-01-1
Molecular weight: 216
m/z	intensity
36	6
38	3
39	43
40	3
41	5
42	0
43	5
49	1
50	6
51	28
52	3
53	15
54	6
55	280
56	10
57	0
58	8
63	13
65	15
76	1
77	19
78	9
79	1
82	2
83	999
84	56
86	2
89	13
91	43
92	2
101	2
102	5
103	11
104	6
105	7
108	16
112	25
113	1
115	230
116	87
117	224
118	27
119	0
125	25
126	0
128	0
129	1
131	3
133	34
134	0
142	2
143	8
155	0
170	1
173	0
174	2
187	5
216	217
