Mass Spectrum: Phenethyl tetradecanoate
Formula: C22H36O2
CAS: 72934-11-3
Molecular weight: 332
m/z	intensity
27	4
29	13
39	8
41	45
42	11
43	67
51	5
55	36
56	7
57	41
63	2
65	8
69	9
71	20
77	19
78	12
79	18
85	10
91	18
92	5
102	1
103	22
104	999
105	307
106	23
211	8
212	1
