Mass Spectrum: 6-(Methylthio)hexanenitrile
Formula: C7H13NS
CAS: 72931-29-4
Molecular weight: 143
m/z	intensity
27	30
30	3
35	25
37	4
38	5
39	59
40	15
41	139
42	42
44	5
45	62
46	34
47	83
48	112
49	27
50	7
53	19
54	34
55	229
56	14
58	13
59	29
60	11
61	999
62	77
63	52
64	9
66	10
67	26
68	53
69	201
70	11
71	8
73	9
74	9
75	61
76	8
80	7
82	80
83	26
85	27
86	3
87	18
88	4
92	4
94	20
96	217
97	95
98	7
100	6
101	19
102	13
115	9
128	23
141	24
143	419
144	32
145	19
