Mass Spectrum: (Z)-3,7-Dimethylocta-2,6-dien-1-yl dodecanoate
Formula: C22H40O2
CAS: 72934-08-8
Molecular weight: 336
m/z	intensity
27	17
29	51
39	35
40	26
41	482
42	27
43	190
49	2
52	4
53	67
54	11
57	110
61	5
62	2
65	8
66	7
67	142
68	617
69	999
70	59
71	69
77	16
78	6
80	595
81	231
91	43
92	256
93	958
94	153
95	54
107	114
108	24
113	6
117	13
121	509
122	51
123	51
131	6
132	5
135	12
136	238
137	66
154	38
183	48
184	10
