Mass Spectrum: Phenethyl stearate
Formula: C26H44O2
CAS: 72934-13-5
Molecular weight: 388
m/z	intensity
26	1
27	8
28	3
29	23
30	1
31	1
32	1
38	1
39	14
40	3
41	105
42	20
43	122
44	6
45	2
50	1
51	5
52	2
55	112
56	23
57	93
58	5
59	3
60	7
61	2
63	2
64	1
65	11
70	13
71	37
72	3
73	12
74	2
75	1
76	1
77	24
78	14
79	35
84	9
85	15
86	1
87	2
89	1
90	1
91	27
92	8
97	13
98	6
99	3
100	1
101	2
102	2
103	21
104	999
105	332
106	27
107	4
111	8
112	2
113	1
114	1
115	2
117	1
118	1
120	1
125	2
128	1
129	3
141	1
143	1
155	1
157	1
166	1
202	1
207	2
208	1
253	1
265	1
267	7
268	2
