Mass Spectrum: Methyl 3-O-acetyl-2,4-di-O-methyl-.alpha.-D-xylopyranoside
Formula: C10H18O6
CAS: 72945-60-9
Molecular weight: 234
m/z	intensity
40	3
41	64
42	28
43	659
44	23
45	199
46	4
47	13
53	23
54	6
55	71
56	12
57	28
58	119
59	71
60	4
61	9
68	28
69	47
70	4
71	80
72	15
73	47
74	999
75	309
76	11
77	2
83	52
84	99
85	90
86	5
87	129
88	80
89	12
97	7
98	8
99	33
100	28
101	899
102	45
103	14
104	1
105	0
111	10
112	2
113	3
114	47
115	209
116	379
117	15
118	3
127	3
128	2
129	26
130	3
131	2
132	0
141	0
142	2
143	73
144	9
145	3
159	7
170	7
171	3
172	0
174	2
175	1
203	5
204	0
