Mass Spectrum: Methyl 2,3-di-O-acetyl-4-O-methyl-6-deoxy-.alpha.-d-mannopyranoside
Formula: C12H20O7
CAS: 72945-48-3
Molecular weight: 276
m/z	intensity
40	14
41	149
42	65
43	999
44	62
45	199
53	39
54	19
55	96
56	24
57	92
58	13
59	269
60	26
61	25
67	13
68	17
69	4
70	13
71	259
72	879
73	109
74	999
75	99
81	25
82	22
83	138
84	2
85	115
86	18
87	699
88	63
89	13
96	72
97	33
98	15
99	227
100	25
101	82
102	94
103	83
111	73
112	15
113	119
114	99
115	135
116	259
117	52
125	20
129	869
130	104
131	51
132	11
141	11
142	13
143	34
144	40
156	79
157	32
172	29
173	33
184	86
185	76
186	11
189	32
216	13
245	11
