Mass Spectrum: (1-Acetyloxyethylidene)malonic acid diethyl ester
Formula: C11H16O6
CAS: 72959-49-0
Molecular weight: 244
m/z	intensity
27	106
28	39
29	238
30	7
31	18
37	1
38	5
39	14
40	4
41	12
43	999
44	20
45	37
46	1
47	3
53	1
54	1
55	9
56	1
58	3
60	1
61	22
66	2
67	13
68	4
69	53
70	4
71	3
73	4
82	5
83	6
84	31
85	18
86	18
87	14
88	4
89	11
97	9
98	1
99	3
100	9
101	55
102	10
103	1
110	9
111	18
112	7
113	25
114	12
115	9
127	2
128	27
129	49
130	28
131	9
132	1
138	2
141	34
142	1
156	143
157	177
158	19
159	24
160	2
173	1
174	1
187	81
188	6
199	5
202	82
203	7
