Mass Spectrum: Glycyl-L-histidyl-L-lysine acetate
Formula: C14H24N6O4
CAS: 72957-37-0
Molecular weight: 340
m/z	intensity
14	4
15	17
16	71
17	49
18	143
19	1
25	1
26	18
27	65
28	348
29	74
30	436
31	14
32	9
35	5
36	47
37	8
38	23
39	71
40	40
41	144
42	147
43	162
44	156
45	22
46	6
50	5
51	13
52	42
53	46
54	188
55	154
56	279
57	88
58	30
59	60
60	9
61	2
62	1
63	5
64	19
65	14
66	30
67	50
68	68
69	76
70	58
71	56
72	127
73	23
74	23
75	8
76	3
77	8
78	9
79	15
80	30
81	914
82	999
83	214
84	252
85	65
86	21
87	6
88	5
89	4
90	2
91	23
92	11
93	45
94	84
95	60
96	83
97	25
98	27
99	50
100	30
101	13
102	3
103	3
104	13
105	8
106	18
107	55
108	196
109	102
110	148
111	53
112	24
113	21
114	178
115	12
116	9
117	6
118	10
119	10
120	21
121	53
122	43
123	34
124	12
125	12
126	13
127	29
128	24
129	26
130	9
131	8
132	20
133	25
134	21
135	19
136	108
137	62
138	33
139	30
140	12
141	8
142	3
143	3
144	18
145	6
146	12
147	10
148	13
149	19
150	44
151	58
152	38
153	14
154	6
155	16
156	12
157	5
158	7
159	9
160	42
161	13
162	12
163	14
164	19
165	16
166	65
167	42
168	17
169	5
170	4
171	3
172	5
173	7
174	13
175	11
176	43
177	24
178	15
179	9
180	5
181	6
182	7
183	3
184	27
185	17
186	8
187	5
188	7
189	9
190	12
191	16
192	10
193	35
194	331
195	36
196	6
197	2
198	4
199	4
200	4
201	7
202	9
203	18
204	11
205	188
206	31
207	29
208	8
209	6
210	3
211	5
212	4
213	4
214	3
215	6
216	11
217	9
218	7
219	6
220	5
221	7
222	6
223	8
224	4
225	2
226	4
227	7
228	9
229	9
230	47
231	15
232	8
233	7
234	3
235	3
236	10
237	3
238	3
239	3
240	3
241	3
242	6
243	5
244	7
245	8
246	5
247	19
248	9
249	5
250	3
251	2
252	2
253	2
254	1
255	3
256	4
257	3
258	3
259	4
260	3
261	3
262	2
263	2
264	3
265	16
266	7
267	2
268	5
269	7
270	3
271	2
272	1
273	1
274	3
275	1
276	1
277	2
278	3
279	3
280	3
281	2
282	2
283	2
284	4
285	4
286	16
287	22
288	4
289	1
291	1
292	3
293	2
294	1
295	1
296	1
298	1
299	1
302	1
304	2
305	2
306	1
307	2
308	1
309	1
310	1
311	2
313	1
318	1
319	1
322	1
340	1
