Mass Spectrum: 1,5-Pentanedione, 3-(1-methylethyl)-2-(2-methyl-1-propenyl)-1,5-diphenyl-
Formula: C24H28O2
CAS: 72972-75-9
Molecular weight: 348
m/z	intensity
26	0
27	13
28	3
29	9
30	0
31	0
38	0
39	7
40	9
41	57
42	2
43	31
44	0
50	4
51	25
52	2
53	9
54	1
55	15
56	1
57	4
58	0
59	12
60	0
63	0
64	0
65	5
66	1
67	21
68	6
69	55
70	3
71	3
74	0
75	1
76	6
77	266
78	20
79	9
80	2
81	22
82	6
83	4
85	0
89	0
90	0
91	21
92	2
93	4
94	1
95	12
96	2
97	2
99	0
102	0
103	2
104	3
105	999
106	70
107	7
108	1
109	80
110	6
111	0
115	5
116	2
117	4
118	1
119	4
120	3
121	2
122	1
123	46
124	560
125	50
126	2
127	1
128	3
129	6
130	1
131	3
132	0
133	1
134	0
137	1
139	0
141	2
142	1
143	5
144	1
145	3
146	0
147	0
152	0
153	0
154	0
155	2
156	0
157	10
158	3
159	9
160	1
161	0
162	0
164	0
165	1
166	2
167	0
168	0
169	3
170	3
171	1
172	0
173	15
174	20
175	50
176	7
177	0
179	0
181	1
183	2
184	0
185	65
186	9
187	8
188	1
195	0
197	0
199	1
200	1
201	3
202	0
209	0
211	0
213	5
214	0
225	6
226	1
227	2
228	11
229	27
230	5
231	0
242	0
243	41
244	7
245	0
277	1
278	0
287	0
305	24
306	6
307	0
331	0
348	14
349	4
350	0
