Mass Spectrum: Methyl 3-O-acetyl-2,4-di-O-methyl-6-deoxy-.alpha.-d-mannopyranoside
Formula: C11H20O6
CAS: 72984-57-7
Molecular weight: 248
m/z	intensity
40	6
41	106
42	36
43	609
44	19
45	229
46	6
47	17
53	24
54	7
55	50
56	10
57	59
58	9
59	189
60	10
61	12
67	28
68	5
69	33
70	7
71	102
72	469
73	159
74	999
75	469
76	19
81	11
82	12
83	27
84	3
85	119
86	6
87	159
88	899
89	59
97	116
98	27
99	41
100	3
101	659
102	43
103	17
111	35
113	20
114	17
115	28
116	779
117	65
118	6
125	18
128	36
129	149
130	13
131	7
143	57
144	15
145	30
157	26
158	3
161	10
185	31
186	1
187	1
188	3
189	0
205	1
217	50
218	4
