Mass Spectrum: Methyl 2,3,4-tri-O-methyl-6-deoxy-.alpha.-D-mannopyranoside
Formula: C10H20O5
CAS: 72983-16-5
Molecular weight: 220
m/z	intensity
41	41
42	5
43	25
44	6
45	105
46	4
55	15
57	23
59	32
71	20
72	73
73	149
75	289
76	7
88	999
89	52
95	20
96	4
97	2
101	179
102	8
113	2
114	1
115	5
116	1
117	1
119	18
129	17
131	9
145	3
176	12
189	0
