Mass Spectrum: L-Leucyl-L-alanine
Formula: C9H18N2O3
CAS: 7298-84-2
Molecular weight: 202
m/z	intensity
15	5
16	1
17	7
18	23
26	2
27	28
28	42
29	22
30	161
31	5
36	1
38	1
39	15
40	4
41	51
42	45
43	115
44	373
45	16
46	1
51	2
52	1
53	5
54	6
55	33
56	20
57	18
58	4
59	1
60	1
61	6
65	1
66	1
67	5
68	6
69	14
70	57
71	13
72	7
73	5
74	3
77	1
79	1
80	1
81	5
82	4
83	4
84	10
85	8
86	999
87	63
88	5
90	6
91	1
93	1
94	1
95	4
96	4
97	7
98	43
99	48
100	7
101	1
102	2
107	1
108	1
109	1
110	1
111	3
112	3
113	23
114	2
115	1
123	1
124	3
125	2
126	3
127	8
128	143
129	9
130	1
135	1
139	1
140	2
141	3
142	5
143	1
144	2
145	14
146	3
149	2
155	1
157	4
158	1
159	1
160	17
161	2
167	1
169	3
170	2
184	1
185	1
187	2
202	3
203	1
