Mass Spectrum: 1-Dimethyl(pentafluorophenyl)silyloxydodecane
Formula: C20H31F5OSi
CAS: 73000-09-6
Molecular weight: 410
m/z	intensity
39	198
40	40
41	882
42	188
43	999
44	116
45	51
47	112
48	5
49	53
50	57
51	77
52	7
53	65
54	88
55	926
56	267
57	599
58	27
59	27
61	23
62	10
63	48
65	42
66	21
67	138
68	214
69	811
70	240
71	233
72	10
73	21
74	19
75	379
76	50
77	702
78	58
79	379
80	109
81	298
82	235
83	669
84	198
86	15
87	17
88	151
89	42
91	33
92	14
93	56
95	119
96	97
97	527
98	150
99	71
100	12
101	63
102	11
105	24
107	30
108	28
109	38
110	70
111	275
112	100
113	34
114	17
115	17
117	22
118	58
120	13
122	24
124	18
125	378
126	63
127	8
128	9
129	111
130	11
131	11
133	17
137	13
138	14
139	141
141	92
142	78
143	15
145	78
146	13
147	7
148	9
150	11
154	26
155	7
156	17
157	13
158	45
159	92
160	39
162	24
163	6
164	20
165	19
166	12
167	106
168	22
175	10
176	4
179	8
180	7
183	7
184	19
206	24
207	6
209	15
210	12
211	12
213	26
220	8
223	9
224	17
225	300
226	58
227	286
228	18
239	30
240	37
241	312
242	82
243	25
254	25
255	349
256	45
257	21
281	12
295	8
393	8
395	166
396	44
397	12
398	2
410	4
411	1
