Mass Spectrum: 2,6-Octadiene, 1-(1-ethoxyethoxy)-3,7-dimethyl-
Formula: C14H26O2
CAS: 73003-77-7
Molecular weight: 226
m/z	intensity
25	1
26	10
27	108
28	16
29	144
30	6
31	66
37	1
38	3
39	121
40	35
41	599
42	47
43	136
44	108
45	781
46	41
47	7
48	2
50	5
51	17
52	10
53	105
54	13
55	85
56	15
57	36
58	3
59	15
60	1
61	6
62	1
63	5
64	2
65	23
66	16
67	140
68	222
69	895
70	86
71	35
72	65
73	999
74	71
75	6
76	1
77	44
78	8
79	64
80	57
81	287
82	65
83	30
84	34
85	25
86	5
87	11
88	1
89	6
90	1
91	47
92	37
93	200
94	54
95	84
96	28
97	38
98	11
99	25
100	4
101	1
102	1
103	4
104	1
105	18
106	5
107	34
108	11
109	20
110	14
111	47
112	10
113	10
114	1
115	2
116	0
117	2
118	0
119	8
120	3
121	124
122	20
123	80
124	12
125	2
126	1
127	4
128	0
129	0
131	1
133	1
134	4
135	8
136	105
137	198
138	29
139	12
140	2
141	1
142	0
147	2
148	0
150	2
151	2
152	32
153	31
154	49
155	5
156	0
162	3
163	0
164	1
165	8
166	1
167	1
168	0
169	0
179	0
180	14
181	2
182	1
210	0
211	1
226	0
