Mass Spectrum: 1-Dimethyl(pentafluorophenyl)silyloxyoctane
Formula: C16H23F5OSi
CAS: 73000-07-4
Molecular weight: 354
m/z	intensity
38	11
39	191
40	31
41	771
42	153
43	615
44	53
45	55
47	139
49	92
50	20
51	63
53	52
54	35
55	679
56	285
57	351
58	20
59	25
60	8
61	25
62	16
63	55
64	8
65	42
66	8
67	72
68	118
69	999
70	248
71	141
72	8
73	8
74	19
75	335
76	38
77	776
78	79
79	416
80	42
81	264
82	83
83	251
84	242
85	57
86	8
87	16
89	30
91	64
92	16
93	55
94	10
95	74
97	27
98	16
99	74
100	9
101	58
105	48
106	9
107	37
108	7
109	14
111	106
112	149
113	39
114	18
115	18
117	32
118	9
119	56
120	11
123	17
124	15
125	335
126	29
127	29
129	95
130	11
132	11
133	15
137	9
139	20
140	11
141	55
142	11
143	57
144	9
145	70
146	9
148	11
155	13
156	6
157	19
158	11
159	100
160	9
161	40
163	15
164	6
165	15
171	75
172	11
185	15
186	78
187	24
211	11
212	4
213	9
224	9
225	275
226	56
227	125
228	17
239	13
240	4
241	26
242	162
243	45
244	13
253	17
255	287
256	45
257	13
267	6
281	8
295	3
337	11
339	231
340	52
341	20
354	7
355	2
