Mass Spectrum: Decane, 5,6-bis(2,2-dimethylpropylidene)-, (Z,Z)-
Formula: C20H38
CAS: 73002-85-4
Molecular weight: 278
m/z	intensity
14	3
15	42
16	3
17	13
18	45
26	6
27	261
28	25
29	339
30	7
31	2
32	1
37	2
38	3
39	122
40	21
41	653
42	45
43	506
44	17
45	3
50	8
51	38
52	18
53	141
54	20
55	521
56	45
57	639
58	29
59	2
62	1
63	10
64	4
65	45
66	17
67	139
68	24
69	731
70	73
71	38
72	3
73	3
74	1
75	3
76	1
77	77
78	19
79	71
80	14
81	126
82	31
83	999
84	83
85	53
86	3
87	3
89	2
90	1
91	69
92	11
93	48
94	11
95	106
96	16
97	743
98	59
99	10
100	1
101	1
102	1
103	6
104	3
105	27
106	6
107	38
108	11
109	98
110	16
111	500
112	45
113	2
115	4
116	1
117	6
118	2
119	33
120	5
121	1
122	1
123	1
124	1
125	8
126	3
127	71
128	15
129	7
130	2
131	5
132	1
133	11
134	3
135	25
136	7
137	64
138	17
139	134
140	16
141	2
143	1
145	2
147	1
148	2
149	1
150	5
151	2
152	11
153	3
154	29
161	5
162	15
163	3
164	1
165	0
166	1
167	3
168	2
177	6
178	2
179	26
180	16
181	111
182	16
183	1
191	2
192	0
193	2
194	1
205	4
206	1
207	61
208	10
209	1
219	1
221	121
222	22
223	2
224	3
235	4
236	3
263	1
278	29
279	6
