Mass Spectrum: 6-Chloropyridin-2-ol
Formula: C5H4ClNO
CAS: 73018-09-4
Molecular weight: 129
m/z	intensity
25	10
26	37
27	23
29	36
33	8
35	11
36	51
37	123
38	222
39	769
40	76
41	26
42	24
43	4
44	6
46	6
47	15
48	7
49	32
50	72
51	52
52	24
53	20
54	9
55	4
56	3
60	15
61	9
62	38
63	30
64	80
65	84
66	688
67	43
68	12
72	4
73	27
74	53
75	31
76	42
77	6
84	6
85	12
86	6
87	4
93	44
94	999
95	58
96	4
99	3
100	23
101	568
102	61
103	183
104	18
111	3
112	4
129	884
130	61
131	307
132	20
