Mass Spectrum: 1-Benzylcyclobutanol-1
Formula: C11H14O
CAS: 73013-83-9
Molecular weight: 162
m/z	intensity
51	130
52	40
53	100
55	50
63	90
70	30
71	589
72	30
77	80
78	80
79	40
89	70
90	50
91	999
92	989
93	80
103	30
105	240
106	40
115	120
116	350
117	70
119	70
133	110
134	410
135	50
145	20
162	160
163	20
