Mass Spectrum: 2,6-Dinitro-4-trifluoromethyl-N-cyclohexylaniline
Formula: C13H14F3N3O4
CAS: 73015-58-4
Molecular weight: 333
m/z	intensity
24	9
25	3
26	15
27	121
28	99
29	191
30	120
31	15
32	10
33	2
34	2
35	7
36	8
37	7
38	8
39	184
40	27
41	649
42	86
43	127
44	36
45	4
46	6
47	4
48	4
50	16
51	34
52	55
53	125
54	114
55	999
56	67
57	153
58	6
59	5
60	1
61	5
62	16
63	31
64	35
65	38
66	20
67	192
68	28
69	219
70	25
71	17
72	3
73	3
74	22
75	45
76	32
77	45
78	22
79	62
80	19
81	123
82	82
83	125
84	13
85	49
86	3
87	13
88	27
89	44
90	13
91	15
92	3
93	17
94	13
95	32
96	13
97	20
98	24
99	32
100	15
101	22
102	17
103	25
104	22
105	40
106	12
107	24
108	19
109	12
110	5
111	7
112	13
113	27
114	22
115	27
116	20
117	24
118	15
119	17
120	17
121	11
122	5
123	40
124	6
125	27
126	54
127	35
128	21
129	15
130	15
131	50
132	28
133	33
134	29
135	20
136	8
137	11
138	30
139	21
140	52
141	44
142	13
143	67
144	43
145	84
146	50
147	37
148	22
149	16
150	5
151	44
152	26
153	50
154	20
155	6
156	3
157	20
158	58
159	79
160	65
161	33
162	23
163	11
164	18
165	20
166	40
167	25
168	10
169	13
170	11
171	41
172	77
173	242
174	73
175	31
176	21
177	6
178	15
179	5
180	3
181	5
182	10
183	15
184	33
185	88
186	284
187	97
188	35
189	58
190	26
191	15
192	10
193	10
194	3
195	3
196	15
197	82
198	87
199	94
200	53
201	122
202	191
203	46
204	13
205	8
206	18
207	5
210	9
211	39
212	73
213	83
214	132
215	64
216	22
217	54
218	16
219	16
220	36
221	19
222	7
223	7
224	39
225	43
226	44
227	24
228	44
229	22
230	16
231	54
232	220
233	43
234	11
235	78
236	26
237	16
238	59
239	41
240	48
241	39
242	44
243	164
244	220
245	86
246	16
247	127
248	233
249	31
250	11
251	39
252	93
253	58
254	77
255	22
256	11
257	24
258	176
259	32
260	102
261	186
262	27
264	20
265	2
266	10
267	15
268	153
269	58
270	45
271	16
272	25
273	8
274	60
275	11
276	6
278	1
279	1
280	20
281	18
282	30
283	6
284	6
285	11
286	26
287	8
288	5
290	400
291	45
292	7
296	2
297	5
298	367
299	67
300	82
301	30
302	5
303	134
304	26
305	3
314	104
315	417
316	730
317	106
318	10
319	1
332	6
333	144
334	21
335	1
