Mass Spectrum: Acetamide, N-(7-methyl-13-diindolo[1,2-c:2,3-E]pyrimidinyl)-
Formula: C20H16N4O
CAS: 73031-06-8
Molecular weight: 328
m/z	intensity
33	23
34	40
36	15
37	41
38	67
39	316
40	447
41	397
43	999
44	276
45	67
46	4
47	1
49	16
50	80
51	107
52	33
53	61
54	42
55	200
56	72
57	212
58	116
59	6
60	13
61	2
62	24
63	60
64	64
65	22
66	3
67	37
68	10
69	105
70	61
71	63
72	18
73	36
74	17
75	37
76	70
77	58
78	20
79	36
80	12
81	34
82	10
83	53
84	32
85	2
87	15
88	14
89	29
90	23
91	48
92	10
93	18
94	4
95	13
97	20
98	22
99	4
101	4
102	39
103	37
104	24
105	18
106	1
111	5
112	23
113	18
114	38
115	25
116	22
117	10
118	6
120	9
121	10
125	2
127	17
128	13
129	22
130	5
131	2
134	2
140	11
141	8
142	23
143	2
149	8
152	7
155	11
167	10
168	3
171	35
176	2
180	3
183	2
204	1
220	3
229	1
240	2
244	5
258	9
283	20
284	6
285	168
286	41
328	30
329	3
