Mass Spectrum: 5-Chloro-2-nitrobenzyl alcohol
Formula: C7H6ClNO3
CAS: 73033-58-6
Molecular weight: 187
m/z	intensity
15	1
16	1
17	4
18	6
19	3
25	2
26	10
27	42
28	31
29	109
30	138
31	74
35	4
36	11
37	43
38	75
39	131
40	13
41	7
42	5
43	13
44	10
45	19
46	20
47	55
48	6
49	42
50	303
51	578
52	119
53	58
54	7
55	27
56	2
57	1
60	17
61	82
62	145
63	322
64	53
65	190
66	30
67	6
68	5
69	2
71	4
72	18
73	152
74	283
75	819
76	174
77	818
78	999
79	89
80	20
81	4
82	1
83	1
84	42
85	94
86	77
87	92
88	35
89	161
90	417
91	67
92	17
93	46
94	95
95	8
96	5
97	24
98	221
99	206
100	97
101	79
102	14
103	9
104	14
105	31
106	45
107	9
108	10
109	13
110	112
111	717
112	214
113	966
114	141
115	244
116	30
117	7
118	2
119	1
120	1
121	7
122	2
123	26
124	102
125	804
126	192
127	332
128	67
129	26
130	5
131	1
133	1
134	13
135	2
138	67
139	293
140	62
141	151
142	41
143	25
144	9
145	2
151	7
152	5
153	25
154	30
155	58
156	15
157	18
158	8
159	1
160	2
168	6
169	14
170	4
171	6
172	1
173	1
184	1
186	2
187	2
188	1
