Mass Spectrum: 1,6-Dioxaspiro[4.5]decane, 2-methyl-
Formula: C9H16O2
CAS: 73046-14-7
Molecular weight: 156
m/z	intensity
27	91
28	72
29	100
31	10
38	2
39	76
40	15
41	184
42	64
43	200
44	7
45	12
50	2
51	7
52	3
53	33
54	18
55	333
56	210
57	72
58	16
61	60
62	2
66	5
67	15
68	8
69	27
70	49
71	43
72	3
73	6
78	6
80	13
81	4
82	35
83	8
84	254
85	29
86	84
87	10
91	7
93	3
95	26
96	8
97	50
98	400
99	60
101	999
102	47
103	4
105	5
109	3
111	114
112	144
113	14
114	7
123	9
125	4
126	15
128	61
129	5
138	2
141	57
142	6
155	13
156	138
157	17
