Mass Spectrum: Spiro[bicyclo[3.2.0]hept-2-ene-6,2'-[1,3]dioxolane]
Formula: C9H12O2
CAS: 73057-70-2
Molecular weight: 152
m/z	intensity
26	11
27	60
28	23
29	22
31	3
37	7
39	87
40	37
42	392
43	2
45	11
49	3
50	23
51	34
52	36
53	9
55	52
56	3
57	1
59	0
60	2
61	2
62	10
63	17
64	5
65	46
66	71
67	21
71	1
73	10
75	2
76	0
77	72
78	21
79	248
80	80
81	37
82	19
83	7
84	2
86	999
87	43
88	3
90	2
91	59
92	32
93	10
94	1
95	10
96	7
98	5
100	1
103	1
104	0
105	2
106	2
107	10
108	17
111	1
112	1
115	0
118	1
119	1
121	4
122	5
124	14
125	5
131	1
132	0
133	0
135	0
136	1
137	32
138	2
143	0
148	0
149	1
150	3
151	13
152	39
153	4
