Mass Spectrum: 6,6-Dimethylheptane-2,4-dione, enol form
Formula: C9H16O2
CAS: 7307-05-3
Molecular weight: 156
m/z	intensity
14	10
15	77
16	3
17	7
18	28
19	1
26	12
27	157
28	149
29	282
30	7
31	48
32	24
37	2
38	9
39	144
40	26
41	323
42	50
43	652
44	16
45	7
47	2
48	5
49	0
50	4
51	9
52	3
53	23
54	5
55	59
56	31
57	439
58	41
59	2
61	0
62	3
63	8
64	0
65	2
66	2
67	6
68	1
69	29
70	4
71	15
72	16
73	0
77	3
78	0
79	2
80	0
81	2
82	2
83	28
84	16
85	999
86	50
87	5
91	0
95	1
97	1
98	0
99	22
100	478
101	30
102	2
111	3
112	0
113	1
123	1
125	2
141	25
142	2
156	48
157	7
158	0
