Mass Spectrum: 3,9-Diazabicyclo[4.2.1]nonan-4-one, 9-methyl-
Formula: C8H14N2O
CAS: 7309-42-4
Molecular weight: 154
m/z	intensity
41	177
42	554
43	74
44	64
45	18
51	16
52	16
53	38
54	58
55	135
56	96
57	96
58	16
66	26
67	56
68	86
69	26
70	56
73	205
74	18
80	36
81	60
82	999
83	149
84	32
94	58
95	30
96	518
97	328
98	30
99	20
111	16
112	12
113	8
123	10
124	22
125	12
126	10
139	14
154	157
155	50
