Mass Spectrum: 5-[2-Bromophenyl]-1H-tetraazole
Formula: C7H5BrN4
CAS: 73096-42-1
Molecular weight: 224
m/z	intensity
42	55
43	115
44	79
47	11
48	9
49	170
50	478
51	216
52	71
53	28
54	2
55	4
57	4
58	16
60	27
61	255
62	623
63	516
64	120
65	40
66	13
67	5
69	4
72	1
73	58
74	196
75	329
76	257
77	36
79	55
80	29
81	45
82	28
83	5
84	51
85	87
86	181
87	191
88	327
89	999
90	863
91	84
92	10
93	6
94	2
95	4
98	11
99	27
100	15
102	302
103	77
104	7
105	3
106	15
107	3
108	7
115	4
116	14
117	297
118	56
119	9
124	0
128	10
129	7
130	11
131	6
132	2
140	1
141	22
142	6
143	20
144	3
145	4
146	3
149	3
152	2
154	1
155	31
157	31
158	2
167	39
168	17
169	98
170	20
171	60
172	4
181	101
182	172
183	103
184	163
185	7
193	0
194	1
196	719
198	757
199	51
222	0
224	540
225	61
226	589
227	86
228	5
