Mass Spectrum: Hexanoic acid, 2-cyano-, methyl ester
Formula: C8H13NO2
CAS: 7309-46-8
Molecular weight: 155
m/z	intensity
41	270
42	112
43	63
44	36
50	13
51	27
52	38
53	40
54	119
55	203
56	36
57	90
58	20
59	234
60	20
66	31
67	40
68	999
69	139
70	33
80	45
81	18
82	70
83	18
87	126
88	15
94	40
95	49
96	117
97	20
98	18
99	458
100	115
101	18
110	18
111	18
112	142
113	20
122	18
123	164
124	142
125	36
140	13
152	18
154	13
155	65
156	18
