Mass Spectrum: Pyrrolidine, 1,1'-methylenebis-
Formula: C9H18N2
CAS: 7309-47-9
Molecular weight: 154
m/z	intensity
40	80
41	450
42	710
43	999
44	50
51	10
52	20
53	40
54	50
55	150
56	40
57	70
67	50
68	50
69	40
70	200
71	130
72	20
80	20
81	20
82	220
83	150
84	910
85	100
96	20
