Mass Spectrum: Malonic acid, 2-acetamido 2-trimethylsiloxy-, bis(trimethylsilyl ester)
Formula: C14H31NO6Si3
CAS: 73090-80-9
Molecular weight: 393
m/z	intensity
31	1
41	6
42	37
43	188
44	67
45	198
46	14
47	33
55	7
56	6
57	14
58	30
59	41
60	7
61	23
66	2
70	8
71	2
72	45
73	999
74	121
75	292
76	21
77	10
84	12
89	1
91	9
98	2
100	24
101	10
102	11
103	9
113	1
114	35
115	24
116	224
117	44
118	17
119	8
130	10
131	34
132	11
133	47
134	4
135	5
143	13
144	3
145	2
146	6
147	256
148	44
149	44
150	5
157	4
158	13
160	5
171	4
172	20
173	2
174	11
175	8
176	5
188	16
189	2
190	44
191	14
192	4
198	46
202	2
204	15
205	1
207	1
216	8
217	1
218	10
219	13
220	4
221	9
230	8
231	18
232	8
233	2
234	247
235	44
236	20
246	58
247	24
248	11
259	21
260	17
261	5
262	7
276	133
277	31
278	16
279	1
288	8
290	1
308	35
309	10
310	1
336	13
337	13
338	3
348	5
349	7
350	5
378	50
379	14
380	7
