Mass Spectrum: (6Z,9Z,12Z,15Z)-Methyl octadeca-6,9,12,15-tetraenoate
Formula: C19H30O2
CAS: 73097-00-4
Molecular weight: 290
m/z	intensity
27	31
29	90
33	2
39	146
41	528
42	25
43	73
45	27
51	26
52	28
53	136
54	85
55	355
59	110
63	11
64	3
65	133
66	130
67	558
68	104
69	127
70	15
73	44
74	93
75	13
77	352
78	149
79	999
80	294
81	274
82	67
84	31
85	25
86	7
87	76
90	5
91	527
92	108
93	412
94	188
95	178
97	37
103	32
104	28
105	296
106	96
107	158
108	263
112	9
115	32
116	21
117	74
118	39
119	216
120	112
121	104
122	100
128	12
129	29
130	14
131	47
132	22
133	90
134	57
135	128
144	15
145	43
146	9
147	100
148	40
159	17
161	73
162	24
164	10
165	8
171	12
172	5
173	9
174	3
175	25
177	7
185	6
187	8
189	20
194	27
201	5
205	4
215	3
219	3
221	29
229	3
232	2
233	4
234	9
261	7
290	5
