Mass Spectrum: 6-Methyl-2-tridecanone
Formula: C14H28O
CAS: 73105-73-4
Molecular weight: 212
m/z	intensity
27	52
29	110
39	38
41	231
42	52
43	776
44	19
45	8
51	3
53	17
54	7
55	210
56	83
57	207
58	999
59	29
60	8
65	3
67	41
68	59
69	107
70	128
71	310
72	32
77	5
79	6
80	4
81	97
82	53
83	62
84	31
85	172
86	14
87	3
91	3
93	6
94	5
95	134
96	55
97	41
98	12
99	17
109	124
110	110
111	24
112	6
113	41
114	5
115	5
119	3
123	59
124	31
125	76
126	17
137	10
138	22
139	7
141	6
151	24
152	39
153	4
154	31
155	8
165	10
169	31
170	4
179	11
194	100
195	14
197	12
211	3
212	11
213	2
