Mass Spectrum: 7-[3-Chloro-2-hydroxypropyl]guanine
Formula: C8H10ClN5O2
CAS: 73100-76-2
Molecular weight: 243
m/z	intensity
42	381
43	999
44	348
45	63
47	14
48	6
49	69
50	30
51	57
52	60
53	173
54	132
55	47
56	22
57	28
58	49
59	33
60	11
61	11
62	11
63	24
64	23
65	38
66	61
67	67
68	44
69	47
70	25
71	11
73	3
75	3
76	3
77	20
78	31
79	46
80	29
81	36
82	19
83	15
84	11
86	8
91	13
92	26
93	48
94	35
95	36
96	23
97	11
105	3
106	17
107	17
108	25
109	42
110	20
111	3
117	3
118	9
119	26
120	13
121	14
122	23
123	24
124	20
126	3
131	3
132	9
133	17
134	29
135	27
136	15
137	11
139	2
145	2
146	27
147	30
148	14
149	8
150	6
151	47
152	32
153	6
158	3
159	2
164	80
165	94
166	20
172	3
176	2
177	2
178	2
179	3
188	11
189	11
190	21
191	10
194	25
195	2
206	3
207	91
208	63
209	3
225	3
242	5
243	49
244	12
245	14
246	3
