Mass Spectrum: .beta.-D-Ribopyranoside, methyl, cyclic 2,3,4-phosphorothioate
Formula: C6H9O5PS
CAS: 73118-93-1
Molecular weight: 224
m/z	intensity
41	517
42	118
43	429
44	64
45	297
46	32
47	273
48	31
49	10
50	16
51	34
52	17
53	144
54	48
55	209
56	40
57	237
58	69
59	127
60	35
61	135
62	8
63	310
64	12
65	46
66	15
67	26
68	193
69	625
70	51
71	137
72	96
73	87
74	58
75	12
76	16
77	16
78	32
79	64
80	32
81	75
82	25
83	28
84	999
85	164
86	61
87	64
88	23
89	319
90	14
91	12
93	12
94	5
95	26
96	24
97	42
98	10
99	24
100	72
101	104
102	19
103	60
104	9
105	25
106	176
107	21
109	7
110	4
111	45
112	5
113	8
114	4
115	9
116	4
117	11
118	6
119	44
120	7
121	132
122	40
123	20
128	7
129	36
130	7
133	4
134	43
135	54
136	46
137	7
138	44
139	10
147	14
149	13
164	153
165	38
166	8
193	37
224	92
225	8
226	5
