Mass Spectrum: Cyclopentanemethanol, 2-(dimethylamino)-3,4,5-tris(phenylmethoxy)-, acetate (ester), [1R-(1.alpha.,2.alpha.,3.beta.,4.alpha.,5.beta.)]-
Formula: C31H37NO5
CAS: 73111-44-1
Molecular weight: 503
m/z	intensity
26	1
27	7
28	11
29	8
30	7
31	2
38	1
39	20
40	2
41	24
42	60
43	79
44	55
45	133
46	752
47	35
49	1
50	6
51	14
52	5
53	5
54	3
55	17
56	10
57	18
58	180
59	8
60	10
61	3
62	2
63	8
64	3
65	74
66	6
67	6
68	8
69	13
70	24
71	16
72	15
73	4
74	4
75	2
76	2
77	27
78	13
79	15
80	3
81	10
82	49
83	15
84	422
85	44
86	168
87	26
88	5
89	12
90	13
91	999
92	161
93	11
94	6
95	8
96	15
97	10
98	48
99	9
100	63
101	5
103	2
104	3
105	21
106	12
107	10
108	13
109	5
110	9
111	6
112	225
113	23
114	16
115	4
116	2
117	3
118	1
119	2
120	1
121	1
122	5
123	3
124	11
125	8
126	27
127	8
128	10
129	8
130	2
131	3
132	2
133	7
134	6
135	2
136	6
137	2
138	21
139	3
140	9
141	3
142	23
143	36
144	7
145	3
146	2
147	4
148	24
149	16
150	2
151	1
152	14
153	8
154	26
155	13
156	44
157	6
158	2
159	3
160	3
161	7
162	8
163	3
164	31
165	6
166	3
167	5
168	2
169	2
170	6
171	3
172	9
173	3
174	88
175	14
176	7
177	6
178	11
179	3
180	2
181	40
182	13
183	7
184	175
185	44
186	8
187	1
188	2
189	2
190	38
191	5
192	1
193	2
196	1
197	1
198	8
199	2
200	2
201	12
202	4
203	2
204	8
205	3
206	8
207	2
214	2
215	1
216	15
217	6
218	13
219	3
220	1
228	1
229	1
230	5
231	2
232	8
233	2
234	5
235	1
240	1
242	1
244	12
245	2
246	63
247	10
248	2
253	68
254	13
255	2
259	1
260	7
261	2
262	28
263	5
268	1
276	1
279	1
288	2
290	48
291	91
292	21
293	3
304	7
305	1
306	57
307	11
308	1
320	2
322	1
324	3
336	2
337	0
338	3
339	0
340	1
352	174
353	56
354	12
355	1
368	0
384	0
396	3
397	14
398	3
412	292
413	92
414	18
415	2
444	6
445	2
460	3
461	0
502	4
503	4
504	7
505	2
