Mass Spectrum: 1H-[1,3]Dioxolo[4,5]cyclopent[1,2-c]isoxazol-4-ol, hexahydro-1,6,6-trimethyl-, [3aS-(3a.alpha.,4.beta.,4a.beta.,7a.beta.,7b.alpha.)]-
Formula: C10H17NO4
CAS: 73111-65-6
Molecular weight: 215
m/z	intensity
26	12
27	100
29	130
30	87
31	101
37	2
38	7
39	102
40	23
41	192
42	317
43	264
44	57
45	17
46	5
47	6
48	4
50	4
51	15
52	10
53	41
54	24
55	101
56	105
57	94
58	45
59	103
60	46
61	6
62	1
63	2
64	2
65	13
66	13
67	41
68	182
69	63
70	98
71	37
72	29
73	32
74	12
75	2
76	5
77	7
78	6
79	6
80	16
81	35
82	62
83	53
84	608
85	927
86	239
87	23
88	11
89	4
91	8
92	3
93	7
94	29
95	39
96	15
97	30
98	140
99	34
100	120
101	26
102	13
103	2
104	4
105	4
106	2
107	2
108	6
109	39
110	86
111	34
112	23
113	19
114	999
115	79
116	12
117	7
118	2
119	2
120	2
121	2
122	17
123	11
124	4
125	3
126	19
127	13
128	22
129	11
130	5
131	2
132	2
133	2
134	1
135	1
138	5
139	22
140	46
141	11
142	7
143	4
144	3
145	1
146	1
147	1
151	1
152	4
153	1
154	6
155	8
156	9
157	9
158	27
159	3
163	1
164	1
165	2
167	4
168	5
169	10
170	10
171	2
172	4
173	1
174	2
178	1
179	2
180	2
181	1
182	6
183	1
184	3
185	3
186	3
187	5
195	1
196	2
197	3
198	3
200	124
201	15
202	3
214	2
215	355
216	49
217	6
