Mass Spectrum: N,N'-Di[4-[6-methoxy-4-methyl-8-quinolylamino]butyl]piperazine
Formula: C34H46N6O2
CAS: 73115-55-6
Molecular weight: 570
m/z	intensity
42	314
43	102
44	81
45	15
47	12
48	5
49	39
50	12
51	36
52	15
53	17
54	27
55	172
56	166
57	72
58	66
59	4
60	6
62	6
63	12
64	8
65	13
66	4
67	15
68	42
69	62
70	164
71	32
72	142
73	10
74	1
75	8
76	10
77	32
78	14
79	10
80	11
81	16
82	72
83	161
84	999
85	75
86	36
87	4
88	5
89	17
90	10
91	18
92	7
93	9
94	14
95	10
96	83
97	178
98	247
99	56
100	19
101	17
102	15
103	16
104	10
105	3
106	3
107	3
108	8
109	10
110	139
111	258
112	50
113	14
114	7
115	20
116	15
117	21
118	11
119	7
120	4
121	3
122	4
123	19
124	14
125	31
126	7
127	11
128	17
129	15
130	75
131	43
132	10
137	10
138	20
139	39
140	18
141	93
142	33
143	53
144	51
145	52
146	16
149	5
151	4
153	18
154	6
155	19
156	25
157	85
158	277
159	115
160	14
161	4
167	12
168	14
169	25
170	23
171	37
172	80
173	215
174	59
175	9
181	11
182	10
183	28
184	21
185	27
186	54
187	62
188	491
189	148
190	18
191	26
193	7
194	9
195	24
196	9
197	15
198	34
199	111
200	131
201	649
202	94
203	48
204	9
209	1
211	50
212	19
213	137
214	118
215	81
216	14
217	4
219	7
224	1
225	25
226	19
227	112
228	53
229	23
230	5
239	38
241	803
242	238
243	237
244	38
245	3
253	8
254	3
255	10
256	7
257	8
259	34
260	9
268	16
269	11
270	40
271	48
272	682
273	127
274	14
281	3
284	9
285	21
286	22
287	8
288	1
298	109
299	32
300	17
301	5
311	9
312	6
313	3
314	1
326	1
327	15
328	8
329	21
330	5
341	6
367	6
381	29
382	46
383	53
384	13
555	15
556	4
569	18
570	86
571	37
572	7
