Mass Spectrum: 2-Penten-1-amine, N,N-diethyl-, (Z)-
Formula: C9H19N
CAS: 73117-11-0
Molecular weight: 141
m/z	intensity
26	8
27	95
29	256
30	168
31	2
33	0
34	11
39	54
40	239
41	420
42	103
43	62
44	87
45	2
51	1
52	1
53	19
54	13
55	24
56	88
57	10
58	999
59	30
61	1
65	3
67	32
68	20
69	298
70	31
71	5
72	97
73	240
74	14
80	2
81	0
82	11
83	1
84	5
86	174
87	6
94	0
96	6
98	4
108	0
110	7
111	1
112	29
113	1
124	0
126	157
127	10
140	14
141	46
142	3
