Mass Spectrum: 1H-Cyclopent[c]isoxazole, 1-[2,3:5,6-bis-O-(1-methylethylidene)-.alpha.-d-mannofuranosyl]hexahydro-4,5-bis(phenylmethoxy)-, [3aS-(3a.alpha.,4.beta.,5.alpha.,6a.
Formula: C32H41NO8
CAS: 73111-31-6
Molecular weight: 567
m/z	intensity
27	19
28	12
29	35
30	10
31	12
39	32
40	5
41	67
42	27
43	152
44	14
45	16
46	15
51	14
52	5
53	15
54	7
55	43
56	12
57	36
58	10
59	57
60	15
61	11
63	8
65	64
66	13
67	20
68	39
69	65
70	28
71	58
72	35
73	34
77	30
78	10
79	35
80	13
81	55
82	19
83	38
84	19
85	57
86	7
87	7
89	13
90	13
91	999
92	125
93	11
94	25
95	24
96	17
97	29
98	57
99	53
100	21
101	96
102	7
103	8
104	6
105	18
106	8
107	35
108	24
109	19
110	14
111	24
112	22
113	23
114	5
115	24
117	6
123	5
124	7
125	13
126	38
127	47
128	11
129	24
131	4
133	7
135	6
138	11
139	12
140	13
141	75
142	14
143	13
144	6
145	12
147	14
149	15
153	30
154	8
155	7
156	36
157	8
158	14
159	6
160	5
162	7
165	7
166	7
167	15
181	27
182	8
184	5
185	75
186	13
187	4
188	4
189	6
200	6
201	5
202	7
203	4
213	7
214	4
216	5
217	11
218	8
219	28
220	6
234	19
243	8
244	13
246	19
247	45
248	46
249	7
252	8
258	5
262	13
272	2
280	3
284	3
296	3
312	2
324	8
325	13
326	36
327	8
338	15
339	4
353	6
354	175
355	44
356	10
358	7
360	27
361	6
366	5
367	8
368	5
370	3
379	10
380	5
392	2
408	3
418	2
430	3
432	4
444	6
450	3
460	4
461	45
462	13
463	3
466	93
467	32
468	6
476	3
492	3
494	5
496	4
552	66
553	26
554	6
565	4
567	30
568	12
569	3
