Mass Spectrum: 1,3,5,7,9,11,13,15,17-Nonaethylbicyclo[9.7.1]nonasiloxane
Formula: C18H52O10Si9
CAS: 73113-24-3
Molecular weight: 680
m/z	intensity
39	25
40	19
59	806
60	70
61	21
69	10
73	28
75	15
76	22
77	25
83	10
87	999
88	93
89	74
91	19
92	19
103	149
104	17
105	132
106	23
107	14
110	21
112	13
113	14
115	207
116	21
117	34
127	18
131	75
133	146
134	23
135	14
151	21
161	86
163	17
177	22
179	20
189	18
193	24
207	66
208	29
209	7
218	16
265	28
266	9
267	28
281	31
282	9
283	3
295	128
296	56
297	24
327	15
341	63
342	20
343	26
355	73
356	24
357	26
369	94
370	36
371	24
383	73
384	26
385	24
397	28
399	19
401	15
415	39
416	18
429	339
430	138
431	78
432	25
443	131
444	73
445	47
446	20
447	33
457	91
458	43
459	30
471	62
472	32
473	38
475	178
476	77
477	70
478	19
487	26
489	48
490	19
491	19
503	530
504	267
505	213
506	68
507	31
515	15
517	631
518	331
519	216
520	70
521	39
531	525
532	256
533	239
534	95
535	45
545	87
546	44
547	45
548	15
549	16
559	63
560	23
561	82
562	33
563	35
564	14
577	72
578	32
579	21
591	145
592	70
593	63
594	26
605	131
606	85
607	59
608	31
619	15
621	14
635	19
651	200
652	120
653	102
654	42
655	25
