Mass Spectrum: Hexahydrocyclopenta[c]isoxazole-4,5,6-triol
Formula: C6H11NO4
CAS: 73111-50-9
Molecular weight: 161
m/z	intensity
26	71
27	305
28	628
29	497
30	262
31	405
33	58
37	17
38	41
39	268
40	81
41	395
42	397
43	617
44	325
45	158
46	126
47	20
50	22
51	38
52	50
53	71
54	130
55	278
56	273
57	277
58	69
59	82
60	306
61	41
62	17
65	25
66	23
67	60
68	91
69	178
70	975
71	540
72	952
73	549
74	67
75	33
77	27
79	22
80	36
81	52
82	61
83	251
84	163
85	65
86	58
87	158
88	106
89	34
91	20
94	26
95	64
96	177
97	100
98	108
99	106
100	999
101	82
102	63
105	26
110	48
111	120
112	53
113	26
114	193
115	38
122	16
125	59
126	26
128	21
129	33
132	21
143	22
144	44
161	330
162	54
