Mass Spectrum: Benzenebutanoic acid, .beta.-methyl-
Formula: C11H14O2
CAS: 7315-68-6
Molecular weight: 178
m/z	intensity
13	5
14	11
15	13
16	3
17	4
18	12
26	5
27	46
28	7
29	16
31	6
32	0
37	2
38	9
39	88
40	9
41	67
42	15
43	23
44	2
45	46
46	1
50	15
51	43
52	12
53	10
54	2
55	17
56	2
57	4
58	3
59	1
60	11
61	3
62	8
63	28
64	9
65	101
66	7
67	3
68	2
69	25
70	2
71	2
73	3
74	24
75	5
76	4
77	27
78	25
79	9
81	3
82	2
83	7
87	14
88	4
89	36
90	22
91	999
92	133
93	8
95	2
96	1
97	1
98	2
99	4
100	1
101	2
102	10
103	21
104	13
105	28
106	3
107	7
111	1
113	2
114	3
115	50
116	33
117	155
118	901
119	114
120	6
121	2
122	3
124	2
125	4
127	5
128	6
129	4
130	1
131	8
132	3
133	1
135	2
144	2
145	2
148	2
159	6
160	8
161	5
176	2
178	129
179	16
180	2
