Mass Spectrum: 2,2-Dimethylperhydro-1,3-oxazine
Formula: C6H13NO
CAS: 73155-29-0
Molecular weight: 115
m/z	intensity
15	28
18	12
27	44
29	21
30	216
31	206
39	68
41	209
42	601
43	88
44	14
54	27
55	30
56	65
57	77
58	83
59	205
70	557
71	999
72	119
84	45
85	165
100	229
115	25
