Mass Spectrum: Milbemycin b, 5-O-demethyl-28-deoxy-5-O-[(1,1-dimethylethyl)dimethylsilyl]-6,28-epoxy-13-hydroxy-25-(1-methylpropyl)-, [6R,13S,25R(S)]-
Formula: C40H64O8Si
CAS: 73162-96-6
Molecular weight: 700
m/z	intensity
26	41
27	26
29	133
31	9
39	57
40	14
41	379
42	33
43	341
44	27
45	59
47	41
50	12
53	63
54	25
55	487
56	66
57	267
58	24
59	86
60	19
61	29
65	38
66	23
67	277
68	43
69	537
70	50
71	104
73	864
74	78
75	999
76	84
77	171
78	34
79	186
80	38
81	289
82	51
83	197
84	84
85	105
87	16
89	21
91	148
92	36
93	325
94	84
95	751
96	96
97	380
98	37
99	45
101	50
103	33
105	136
106	28
107	167
108	52
109	285
110	103
111	176
112	20
113	84
115	104
116	33
117	51
119	133
120	67
121	184
122	63
123	158
124	28
125	96
126	16
127	28
128	35
129	61
130	22
131	57
132	35
133	110
134	28
135	153
136	35
137	886
138	123
139	42
140	30
141	54
142	30
143	91
144	32
145	89
146	33
147	55
148	97
149	52
150	52
151	516
152	343
153	296
154	50
155	43
156	39
157	56
158	28
159	288
160	46
161	78
162	21
163	46
164	19
165	63
166	26
167	45
168	40
169	79
170	30
171	421
172	74
173	44
174	28
175	41
177	194
178	41
179	332
180	65
181	77
182	26
183	50
184	18
185	103
186	29
187	47
188	18
189	37
191	103
192	32
193	45
194	29
195	621
196	107
197	57
198	38
199	176
200	63
201	31
202	21
203	51
204	19
205	54
206	19
207	34
208	46
209	52
210	14
211	26
213	20
215	35
216	20
217	47
218	19
219	25
220	18
221	172
222	38
223	350
224	67
225	172
226	54
227	44
229	18
231	20
233	21
235	18
236	12
237	20
239	14
241	15
242	25
243	58
244	32
245	80
246	22
247	21
249	61
250	21
251	18
253	10
255	17
257	12
259	17
261	22
262	14
263	18
264	17
265	28
266	14
267	9
271	21
272	17
273	50
274	18
275	23
277	16
287	10
288	12
289	111
290	35
291	28
293	12
299	9
301	25
302	11
303	13
305	13
307	848
308	206
309	35
317	25
318	16
319	88
320	24
321	12
325	9
329	10
330	22
331	47
332	14
336	10
337	9
343	6
347	5
354	4
361	5
369	4
372	14
373	5
375	130
376	42
377	15
383	4
393	5
422	11
423	8
431	4
437	6
440	50
441	17
455	21
456	8
458	82
459	26
460	5
467	3
473	2
492	9
494	3
532	5
541	4
550	14
551	10
554	7
555	3
568	3
607	10
608	5
625	88
626	41
627	14
643	6
664	2
667	3
682	48
683	25
684	9
700	20
701	10
702	3
