Mass Spectrum: 4-(4-Methylpent-3-enyl)-3,6-dihydro-1,2-dithiin
Formula: C10H16S2
CAS: 73188-23-5
Molecular weight: 200
m/z	intensity
39	210
41	999
53	120
65	50
67	100
69	580
77	110
79	130
80	50
91	150
92	60
93	460
94	50
105	20
107	50
119	30
121	30
134	20
135	250
136	40
166	10
167	10
168	10
200	10
