Mass Spectrum: Perfluoro(1-oxaspiro[4.4]nonane)
Formula: C8F14O
CAS: 73187-04-9
Molecular weight: 378
m/z	intensity
31	278
50	119
69	870
93	396
100	999
109	295
131	395
143	229
181	330
193	243
209	133
243	291
259	603
309	50
359	202
378	36
