Mass Spectrum: 3,4-Dimethyl-6-phenyl-3-cyclohexenecarboxylic acid, cis-
Formula: C15H18O2
CAS: 73182-38-4
Molecular weight: 230
m/z	intensity
15	1
16	1
17	29
18	3
26	2
27	39
28	9
29	22
31	1
38	4
39	96
40	16
41	139
42	15
43	37
44	13
45	9
47	1
50	15
51	68
52	20
53	58
54	66
55	47
56	7
57	9
58	3
59	1
60	1
61	1
62	7
63	33
64	12
65	86
66	15
67	435
68	25
69	66
70	9
71	12
72	8
73	5
74	7
75	12
76	28
77	153
78	58
79	73
80	11
81	77
82	999
83	83
84	25
85	17
86	3
87	5
88	3
89	27
90	9
91	484
92	70
93	90
94	125
95	56
96	6
97	9
98	6
99	3
100	5
101	6
102	42
103	87
104	400
105	97
106	20
107	142
108	16
109	6
110	3
111	85
112	7
113	5
114	3
115	126
116	31
117	30
118	16
119	11
120	14
121	13
122	2
123	2
124	2
125	10
126	54
127	36
128	101
129	97
130	29
131	99
132	11
133	10
134	3
135	2
136	2
137	11
138	39
139	466
140	43
141	66
142	41
143	247
144	49
145	9
147	232
148	195
149	38
150	6
151	9
152	80
153	42
154	34
155	51
156	20
157	27
158	189
159	34
160	5
161	24
162	22
163	5
164	3
165	31
166	12
167	30
168	19
169	219
170	48
171	13
172	3
173	24
174	6
175	4
176	1
177	1
178	5
179	8
180	2
181	6
182	13
183	40
184	420
185	135
186	19
187	58
188	21
189	3
193	2
194	4
195	2
196	1
197	13
198	2
201	42
202	16
203	2
208	3
209	1
210	1
211	4
212	14
213	4
214	3
215	24
216	4
228	3
230	931
231	151
232	17
233	1
