Mass Spectrum: Boronic acid, ethyl-, dimethyl ester
Formula: C4H11BO2
CAS: 7318-82-3
Molecular weight: 102
m/z	intensity
25	2
26	8
27	27
28	5
29	21
30	1
31	14
36	1
37	4
38	1
39	9
40	4
41	8
42	124
43	482
44	5
45	9
49	0
50	0
51	1
52	2
53	6
54	1
55	5
56	7
57	16
58	4
59	13
60	0
61	0
64	0
65	0
66	1
67	3
68	5
69	20
70	52
71	189
72	243
73	999
74	23
75	4
86	0
87	3
88	0
101	2
102	9
103	0
