Mass Spectrum: 1-Propene, 1-methoxy-
Formula: C4H8O
CAS: 7319-16-6
Molecular weight: 72
m/z	intensity
16	4
18	4
25	13
26	62
27	267
28	110
29	526
30	12
31	48
32	12
33	7
36	2
37	21
38	45
39	271
40	46
41	755
42	249
43	72
44	13
45	191
46	5
53	37
54	3
55	37
56	46
57	168
58	7
69	11
70	3
71	660
72	999
73	47
74	3
