Mass Spectrum: Hydrazine, N-benzoyl-N'-2-chlorobenzoyl-
Formula: C14H11ClN2O2
CAS: 732-21-8
Molecular weight: 274
m/z	intensity
35	2
36	12
38	57
39	33
40	7
41	4
42	2
43	7
44	8
50	330
51	312
52	20
53	7
55	3
56	1
60	7
61	9
62	18
63	15
64	9
65	7
69	3
71	1
74	426
77	782
78	24
79	1
84	7
85	31
86	6
87	9
88	1
89	3
90	7
91	4
92	1
99	5
101	1
102	5
103	8
105	999
106	63
107	4
109	1
111	272
113	103
114	4
119	3
137	1
139	538
141	205
142	8
274	72
275	9
276	22
277	2
