Mass Spectrum: Phosphonic acid, methyl-, monocyclopentyl ester
Formula: C6H13O3P
CAS: 73207-99-5
Molecular weight: 164
m/z	intensity
26	48
27	247
29	143
31	35
38	31
39	315
40	66
41	334
42	110
43	38
44	54
45	18
47	121
48	23
49	33
51	18
53	62
55	30
57	127
58	26
65	49
66	23
67	164
68	116
69	86
79	284
80	143
81	62
85	81
96	37
97	999
135	23
136	23
165	17
