Mass Spectrum: Nonane, 2,8-dimethyl-4-methylene-
Formula: C12H24
CAS: 7323-15-1
Molecular weight: 168
m/z	intensity
14	2
15	9
16	1
26	6
27	168
28	35
29	157
30	4
31	3
37	1
38	4
39	144
40	36
41	173
42	76
43	552
44	21
45	1
50	3
51	12
52	7
53	61
54	30
55	424
56	999
57	345
58	15
59	1
63	2
65	14
66	7
67	71
68	37
69	456
70	319
71	51
72	3
77	13
78	2
79	17
80	3
81	30
82	29
83	350
84	72
85	30
86	2
91	5
93	3
95	15
96	6
97	63
98	41
99	9
109	5
110	14
111	51
112	44
113	5
123	1
124	1
125	7
126	6
127	1
139	2
140	4
153	3
154	3
168	41
169	6
