Mass Spectrum: Propanoic acid, 2,2-dimethyl-, silver(1+) salt
Formula: C5H9AgO2
CAS: 7324-58-5
Molecular weight: 208
m/z	intensity
27	33
28	26
38	15
39	132
40	25
41	367
42	62
43	41
44	111
45	58
51	11
53	16
55	54
56	92
57	999
58	52
59	54
69	21
85	27
87	38
107	28
109	26
214	22
216	40
218	19
301	1
315	47
316	2
317	83
318	5
319	39
320	2
372	1
373	0
374	2
375	1
376	1
377	0
