Mass Spectrum: Cyclohexanecarboxylic acid, 4-pentyl-, 4-propylcyclohexyl ester
Formula: C21H38O2
CAS: 73255-65-9
Molecular weight: 322
m/z	intensity
27	92
28	45
29	183
39	76
41	459
42	57
43	270
44	12
53	56
54	155
55	559
56	49
57	180
58	10
65	16
67	284
68	76
69	599
70	59
71	67
73	18
77	18
79	84
80	57
81	554
82	999
83	535
84	36
85	19
91	11
93	29
95	183
96	134
97	266
98	26
99	10
107	26
109	87
110	15
111	75
121	21
122	11
124	611
125	116
126	15
127	12
135	10
137	9
141	12
142	22
151	14
153	32
163	60
181	36
199	981
200	138
201	13
279	1
