Mass Spectrum: Silane, trichlorodocosyl-
Formula: C22H45Cl3Si
CAS: 7325-84-0
Molecular weight: 442
m/z	intensity
41	931
42	288
43	999
44	40
45	3
47	0
49	7
50	8
51	15
52	7
53	56
54	81
55	499
56	394
57	807
58	32
59	1
63	2
65	9
66	6
67	68
68	54
69	245
70	232
71	344
72	19
73	0
77	7
78	1
79	9
80	2
81	27
82	61
83	190
84	107
85	171
86	15
91	4
93	2
95	12
96	26
97	130
98	54
99	36
100	6
107	12
109	5
110	10
111	56
112	20
113	22
114	3
115	0
121	8
122	1
123	2
124	6
125	22
126	16
127	9
128	2
131	2
135	0
137	1
138	3
139	8
140	10
141	7
142	2
145	0
152	2
153	4
154	8
155	5
156	2
159	0
166	1
167	5
168	6
169	4
170	2
180	0
181	1
182	4
183	3
184	1
194	0
195	0
196	5
197	5
198	2
210	4
211	1
212	2
219	2
223	0
224	3
225	1
226	2
227	0
238	2
239	0
240	2
252	3
253	0
254	2
264	0
266	3
267	0
268	1
280	1
282	0
294	1
398	0
442	0
