Mass Spectrum: Boroxin, tripropyl-
Formula: C9H21B3O3
CAS: 7325-08-8
Molecular weight: 210
m/z	intensity
26	11
27	97
29	96
30	2
35	0
37	6
38	5
39	57
40	29
41	162
42	999
43	198
44	1
45	3
48	0
50	7
51	9
52	21
53	54
54	46
55	103
56	19
57	12
60	1
61	6
62	2
63	0
64	5
65	12
66	22
67	87
68	168
69	337
70	50
71	81
72	1
73	2
74	1
75	0
77	0
78	10
79	14
80	22
81	56
82	38
83	55
84	13
85	5
86	1
87	0
89	3
90	0
91	0
92	3
93	13
94	26
95	63
96	140
97	201
98	32
99	31
100	0
103	2
104	5
105	5
106	4
107	10
108	32
109	67
110	97
111	105
112	28
113	26
115	0
116	0
118	0
119	1
120	6
121	16
122	38
123	66
124	83
125	99
126	14
127	9
129	0
130	8
131	8
133	3
134	5
135	8
136	21
137	60
138	166
139	206
140	62
141	48
142	3
143	0
145	0
146	0
149	8
150	18
151	36
152	55
153	74
154	19
155	9
158	2
160	0
161	1
162	1
163	6
164	41
165	191
166	469
167	527
168	315
169	353
170	27
172	5
173	3
176	0
177	1
178	7
179	15
180	60
181	146
182	170
183	18
184	0
191	1
192	6
193	39
194	141
195	183
196	18
197	1
199	0
207	4
208	33
209	96
210	107
211	11
212	0
