Mass Spectrum: 3-(1-Piperidinylmethyl)phenol
Formula: C12H17NO
CAS: 73279-04-6
Molecular weight: 191
m/z	intensity
29	345
30	100
31	274
32	188
33	4
37	3
38	18
39	197
40	27
41	211
42	283
43	31
44	39
50	17
51	64
52	37
53	73
54	34
55	142
56	67
57	14
58	3
62	5
63	22
64	9
65	26
66	11
67	19
68	18
69	17
70	19
75	17
77	229
78	70
79	66
80	15
81	12
82	22
84	999
85	58
89	5
90	6
91	10
93	4
94	9
95	15
96	13
98	304
99	20
104	4
105	12
107	537
108	173
109	13
117	3
118	4
119	3
120	12
121	10
122	3
132	4
133	9
134	23
135	3
146	4
148	21
149	3
150	3
162	15
190	171
191	196
192	31
