Mass Spectrum: (7R,8S)-cis-anti-cis-7,8-Epoxytricyclo[7.3.0.0(2,6)]dodecane
Formula: C12H18O
CAS: 73285-35-5
Molecular weight: 178
m/z	intensity
26	10
27	180
29	120
31	10
38	10
39	310
40	50
41	530
42	30
43	90
50	20
51	60
52	40
53	210
54	110
55	250
56	20
57	70
63	20
64	10
65	140
66	180
67	999
68	190
69	100
70	60
71	30
77	260
78	100
79	980
80	480
81	820
82	330
83	140
84	60
85	10
91	450
92	240
93	520
94	340
95	280
96	150
97	470
98	60
99	10
104	120
105	140
106	70
107	430
108	120
109	100
110	240
111	80
112	10
115	40
116	20
117	240
118	70
119	210
120	70
121	170
122	110
123	40
124	50
130	10
131	280
132	110
133	120
134	160
135	170
136	50
137	140
138	10
145	50
146	10
147	100
148	20
149	210
150	80
151	8
159	25
160	90
161	20
162	40
163	25
177	36
178	65
179	8
