Mass Spectrum: Spiro[1,3-dioxolane-2,1'(2'H)-naphthalen]-6'-ol, octahydro-8'a-methyl-, (4'a.alpha.,6'.beta.,8'a.beta.)-(-)-
Formula: C13H22O3
CAS: 73284-93-2
Molecular weight: 226
m/z	intensity
26	6
27	55
29	57
30	5
31	13
36	5
38	4
39	66
40	18
41	154
42	46
43	88
44	35
45	39
46	4
50	4
51	13
52	14
53	55
54	22
55	146
56	24
57	54
58	14
59	9
60	13
61	6
63	4
64	6
65	28
66	20
67	89
68	28
70	25
71	22
72	4
73	102
74	7
75	5
76	3
77	51
78	34
79	109
80	22
81	61
82	32
83	29
84	19
85	12
86	316
87	54
88	45
89	5
91	72
92	31
93	131
94	39
95	61
96	24
97	38
98	15
99	999
100	161
101	63
102	10
103	7
104	31
105	74
106	19
107	58
108	48
109	54
110	23
111	131
112	42
113	148
114	27
115	14
116	7
117	18
118	65
119	31
120	188
121	110
122	71
123	30
124	23
125	22
126	12
127	16
128	8
129	12
130	6
131	106
132	14
133	20
134	6
135	30
136	19
137	22
138	102
139	33
140	7
141	19
142	6
143	5
144	4
145	19
146	155
147	45
148	18
149	46
150	7
151	11
152	6
153	8
154	6
155	10
156	6
157	5
158	5
159	6
160	3
161	5
162	6
163	15
164	153
165	74
166	19
167	12
168	6
169	7
170	3
173	4
175	3
176	3
177	3
178	4
179	8
180	6
181	17
182	29
183	188
184	24
185	11
191	4
192	4
193	8
194	5
195	5
196	9
197	6
199	7
200	3
201	5
205	5
208	106
209	29
210	6
211	11
213	7
225	8
226	114
227	21
228	4
