Mass Spectrum: n-Heptanol, 7-[1-cycloazapropyl]-
Formula: C9H19NO
CAS: 73290-20-7
Molecular weight: 157
m/z	intensity
41	348
42	450
43	388
44	271
45	19
46	6
47	1
49	5
51	9
53	42
56	999
57	400
58	149
59	7
62	0
63	2
65	4
67	27
68	18
69	13
70	159
71	187
72	10
73	1
74	2
77	2
79	5
80	3
81	9
82	16
84	236
85	35
86	5
87	2
88	2
92	8
93	1
94	3
95	5
96	7
98	122
99	22
100	6
101	1
102	0
105	0
108	0
110	4
112	82
113	10
114	10
115	2
116	0
118	0
124	1
126	64
127	44
128	4
129	0
130	1
131	0
141	2
142	12
143	1
155	1
156	47
157	386
158	33
159	1
