Mass Spectrum: Tetraethylammonium p-toluenesulfonate
Formula: C15H27NO3S
CAS: 733-44-8
Molecular weight: 301
m/z	intensity
14	1
15	15
26	8
27	69
28	83
29	92
30	296
31	4
32	2
37	2
38	7
39	52
40	8
41	30
42	79
43	14
44	113
45	4
48	3
49	1
50	14
51	22
52	8
53	8
54	9
55	6
56	49
57	15
58	323
59	11
60	1
61	4
62	11
63	35
64	11
65	103
66	6
67	2
68	2
69	2
70	25
71	13
72	43
73	2
74	4
75	4
76	2
77	46
78	7
79	49
80	13
81	2
82	1
84	7
85	3
86	999
87	60
88	2
89	36
90	32
91	307
92	29
93	1
97	1
98	1
99	4
100	76
101	217
102	16
105	1
106	1
107	132
108	100
109	8
110	1
121	1
123	1
124	2
138	1
139	1
140	1
153	1
155	16
156	2
157	1
171	1
172	265
173	23
174	13
175	1
