Mass Spectrum: 1-Dimethylaminoformyl-3-phenyl-4-amino-4,5(1H)-dihydro-1,2,4-triazole-5-one
Formula: C11H13N5O2
CAS: 73324-36-4
Molecular weight: 247
m/z	intensity
39	49
42	81
43	29
44	111
45	9
50	19
51	91
52	9
56	48
63	9
70	29
72	999
73	148
76	80
77	177
91	9
103	89
104	58
117	29
118	20
119	69
145	9
146	39
147	30
161	20
162	19
176	88
177	40
190	39
203	19
204	19
247	695
