Mass Spectrum: Benzoic acid, 4-[(cyclohex-2-enyl)oxy]-, [3-(2-methylpyrrolidin-1-yl)propyl] ester
Formula: C21H29NO3
CAS: 73331-30-3
Molecular weight: 343
m/z	intensity
41	82
42	40
43	12
44	17
49	3
50	3
51	8
52	7
53	45
54	11
55	32
56	30
57	7
63	5
64	7
65	21
66	11
67	7
68	14
69	57
70	18
71	8
72	3
76	4
77	28
78	6
79	103
80	33
81	197
82	39
83	21
84	57
85	5
86	4
91	3
92	30
93	16
94	6
95	4
96	30
97	40
98	999
99	65
104	5
105	1
107	2
108	3
109	1
110	58
111	7
112	4
114	3
115	3
119	3
120	41
121	132
122	11
124	28
125	31
126	13
128	2
140	3
142	48
143	5
149	2
150	4
159	4
178	14
179	60
180	7
199	4
201	6
247	51
248	42
249	6
259	0
261	11
262	22
263	7
301	7
328	634
329	139
330	19
342	20
343	94
344	26
345	4
