Mass Spectrum: Glycine, N-pentafluoropropanoyl-, isopropyl ester
Formula: C8H10F5NO3
CAS: 73341-77-2
Molecular weight: 263
m/z	intensity
27	128
29	37
30	21
39	41
41	304
42	64
43	999
44	34
45	32
56	35
58	99
59	74
69	65
74	41
78	46
102	47
119	154
126	21
128	33
147	45
174	25
176	710
177	667
178	48
202	43
204	174
