Mass Spectrum: Geldanamycin, 18,21-didehydro-6,17-didemethoxy-18,21-dideoxo-18,21-dihydroxy-15-methoxy-6-methyl-11-O-methyl-, (6S,15R)-
Formula: C30H44N2O8
CAS: 73341-73-8
Molecular weight: 560
m/z	intensity
41	611
42	162
43	999
44	603
45	551
46	32
47	195
52	45
53	144
55	800
56	46
57	547
58	85
59	222
60	59
61	75
62	12
63	101
65	111
66	42
67	529
68	98
69	705
70	164
71	500
72	144
73	84
75	353
77	529
78	182
79	833
80	124
81	294
82	205
83	269
84	239
85	452
86	83
87	15
88	130
89	17
91	337
92	57
93	542
94	408
95	353
96	111
97	211
98	178
99	135
100	23
101	187
103	59
104	46
105	228
106	80
107	317
108	57
109	430
110	153
111	115
112	39
113	49
115	102
116	31
117	47
118	56
119	247
120	77
121	423
122	820
123	216
124	191
125	208
126	31
127	74
128	50
129	163
130	65
131	133
132	38
133	166
134	76
135	88
136	81
137	99
138	86
139	71
140	32
141	88
142	19
143	67
144	39
145	114
146	81
147	108
148	45
149	117
150	49
151	45
152	68
153	141
154	12
155	42
156	29
157	58
158	30
159	125
160	74
161	99
162	51
163	99
164	85
165	78
167	245
168	119
169	27
170	23
171	51
172	33
173	159
174	78
175	280
176	98
177	53
178	41
179	51
181	10
183	26
184	32
185	67
186	48
187	59
188	46
189	82
190	55
191	52
193	55
194	35
195	12
196	21
197	18
198	25
199	26
200	43
201	99
202	50
203	85
204	26
205	17
207	13
209	12
211	28
212	35
213	54
214	40
215	28
216	62
217	64
218	27
219	69
220	35
221	26
223	26
224	12
225	11
226	46
227	12
228	49
229	22
230	27
231	24
232	67
233	71
234	28
240	48
242	34
243	35
244	12
245	36
246	50
248	12
249	11
252	25
253	10
254	37
256	41
257	27
258	21
259	14
260	66
262	11
263	32
264	18
265	37
268	21
269	11
270	34
272	13
274	10
281	10
282	26
284	51
285	29
287	29
288	168
289	23
290	16
294	29
296	30
298	16
300	12
310	34
324	10
326	46
328	10
345	11
358	79
370	61
377	10
388	11
390	48
499	39
515	22
516	11
