Mass Spectrum: 1,3-Dioxolane-4,5-dimethanol, 2,2-dimethyl-, (4R-trans)-
Formula: C7H14O4
CAS: 73346-74-4
Molecular weight: 162
m/z	intensity
14	3
15	47
17	1
18	3
26	5
27	56
28	13
29	45
30	4
31	203
32	6
38	2
39	42
40	9
41	187
42	38
43	631
44	32
45	89
46	2
47	2
53	1
55	16
56	8
57	40
58	22
59	999
60	36
61	114
62	2
69	209
70	9
71	8
72	2
73	41
74	4
75	2
83	9
84	1
85	21
86	5
87	104
88	4
89	1
95	2
99	1
100	1
101	7
102	3
103	2
104	1
105	20
106	1
113	19
114	2
115	6
116	2
129	3
131	265
132	18
133	2
144	3
145	1
147	446
148	30
149	5
163	5
