Mass Spectrum: Indan-1,2-dione, 4,7-dimethyl-
Formula: C11H10O2
CAS: 73356-55-5
Molecular weight: 174
m/z	intensity
41	41
42	19
43	19
44	9
45	19
46	0
47	9
48	3
49	44
50	122
51	273
52	81
53	57
54	5
57	1
58	21
59	0
61	20
62	72
63	200
64	43
65	175
66	26
67	7
73	6
74	58
75	5
76	49
77	199
78	102
79	29
80	2
81	2
82	2
83	0
87	27
88	11
89	91
90	7
91	436
92	43
93	4
97	4
98	11
99	5
100	0
101	12
102	70
103	386
104	22
105	135
106	11
107	3
112	2
113	6
114	1
115	346
116	21
117	999
118	481
119	48
120	4
121	2
122	19
123	1
127	4
128	7
129	6
130	3
132	11
133	62
134	5
135	3
142	1
143	8
144	5
145	18
146	855
147	84
148	9
149	1
158	2
159	16
160	4
161	1
172	1
173	10
174	154
175	21
176	5
177	3
