Mass Spectrum: 3,5-Dimethyl-4-octanone
Formula: C10H20O
CAS: 7335-17-3
Molecular weight: 156
m/z	intensity
15	13
27	207
28	124
29	345
39	150
41	416
42	92
43	607
44	24
53	29
55	111
57	999
58	43
67	12
69	33
71	911
72	48
85	279
86	84
99	145
114	152
115	15
156	61
