Mass Spectrum: Di-epi-1,10-cubenol
Formula: C15H26O
CAS: 73365-77-2
Molecular weight: 222
m/z	intensity
27	24
29	30
39	47
40	8
41	168
42	17
43	148
44	5
45	7
51	14
52	6
53	59
54	9
55	168
56	32
57	42
58	5
63	5
65	35
66	13
67	78
68	21
69	146
70	30
71	37
72	25
77	99
78	18
79	126
80	24
81	142
82	212
83	60
84	13
85	17
89	4
91	114
92	57
93	146
94	43
95	153
96	28
97	43
98	8
103	9
104	8
105	330
106	45
107	124
108	40
109	148
110	88
111	98
112	11
115	13
116	5
117	26
118	25
119	999
120	162
121	125
122	114
123	126
124	17
125	13
128	6
129	5
131	12
132	8
133	50
134	42
135	59
136	16
137	37
138	9
139	11
140	3
147	39
148	31
149	18
150	4
151	12
153	17
154	5
160	17
161	510
162	86
163	12
164	6
165	8
167	3
179	154
180	22
181	2
189	17
194	3
204	305
205	58
206	4
207	25
208	4
222	2
