Mass Spectrum: Acetamide, N-methyl-N-(5,6,7,9-tetrahydro-1,2,3,10-tetramethoxy-9-oxobenzo(a)heptalen-7-yl)-, (S)-
Formula: C23H27NO6
CAS: 7336-40-5
Molecular weight: 413
m/z	intensity
42	259
43	999
44	89
45	31
49	8
51	19
53	20
54	10
55	46
56	621
57	59
58	23
59	14
63	24
65	16
66	8
67	15
68	38
69	21
70	40
71	10
74	29
75	22
76	21
77	38
78	16
79	12
81	9
82	14
83	12
84	17
85	9
86	9
87	19
88	13
89	23
90	12
91	24
92	10
95	9
97	9
98	19
99	13
101	14
102	20
103	16
104	11
105	16
106	15
107	10
110	9
111	13
112	15
113	25
114	27
115	71
116	16
117	11
118	14
119	16
120	10
121	9
124	8
125	13
126	40
127	55
128	57
129	24
130	12
131	15
132	12
133	16
134	13
135	9
136	11
137	10
138	18
139	84
140	48
141	61
142	31
143	15
144	12
145	11
146	10
147	11
148	18
149	12
150	17
151	36
152	89
153	55
154	37
155	53
156	44
157	23
158	11
159	8
160	9
161	9
162	19
163	20
164	21
165	66
166	27
167	34
168	50
169	47
170	38
171	29
172	13
174	9
176	16
177	25
178	25
179	20
180	24
181	57
182	36
183	52
184	30
185	35
186	11
189	9
190	10
191	13
192	14
193	18
194	24
195	43
196	36
197	41
198	33
199	22
200	10
205	13
206	13
207	28
208	25
209	35
210	34
211	71
212	39
213	38
214	14
220	10
221	19
222	26
223	37
224	37
225	40
226	36
227	37
228	17
235	23
236	24
237	35
238	57
239	65
240	36
241	36
242	19
243	9
249	13
250	19
251	47
252	39
253	42
254	120
255	58
256	32
257	13
264	12
265	39
266	53
267	50
268	45
269	76
270	35
271	24
278	10
279	19
280	29
281	205
282	88
283	37
284	41
285	22
286	9
294	19
295	18
296	36
297	185
298	64
299	48
300	19
308	12
309	19
310	22
311	35
312	621
313	132
314	83
315	19
322	14
324	13
325	44
326	29
327	15
328	44
329	17
330	22
336	9
339	10
340	59
341	17
342	81
343	22
352	14
354	31
356	53
357	16
370	197
371	47
372	8
384	15
385	63
386	13
398	22
413	383
414	104
415	18
