Mass Spectrum: 2,5-Anhydro-1,3,4,6-tetra-O-methyl-d-mannitol
Formula: C10H20O5
CAS: 73370-61-3
Molecular weight: 220
m/z	intensity
71	791
72	114
73	126
74	260
75	263
81	58
82	18
83	239
84	101
85	157
86	56
87	287
88	44
89	507
90	28
95	23
97	21
98	12
99	501
100	46
101	999
102	133
103	33
111	541
112	57
113	52
114	43
115	462
116	39
117	50
125	396
126	181
127	33
129	37
143	890
144	74
145	22
156	376
157	60
158	38
169	10
174	10
175	370
176	27
188	18
