Mass Spectrum: Allopumiliotoxin 253a
Formula: C15H27NO2
CAS: 73376-37-1
Molecular weight: 253
m/z	intensity
53	38
54	21
55	100
56	31
57	31
65	27
66	14
67	63
68	78
69	88
70	999
71	143
72	86
73	14
74	19
77	33
79	47
80	29
81	53
82	38
83	65
84	72
85	21
91	24
93	38
94	25
95	64
96	161
97	63
98	37
99	17
100	22
105	12
106	17
107	30
108	80
109	89
110	33
111	41
112	376
113	109
114	341
115	30
120	27
121	19
122	46
123	89
124	30
125	25
126	29
134	17
136	40
137	26
138	20
139	38
140	41
148	21
149	13
150	52
151	20
154	13
164	84
165	18
166	24
168	20
174	17
178	18
179	36
180	11
182	225
183	35
192	138
193	35
206	16
208	106
210	158
211	34
218	31
220	88
221	13
236	361
237	60
238	26
252	32
253	107
254	17
