Mass Spectrum: (7R,8R,8aS,E)-8-Methyl-6-((R)-2-methylhexylidene)octahydroindolizine-7,8-diol
Formula: C16H29NO2
CAS: 73376-38-2
Molecular weight: 267
m/z	intensity
51	4
52	3
53	32
54	15
55	90
56	14
63	2
64	1
65	16
66	9
67	50
69	55
70	999
71	114
72	73
73	5
74	18
77	26
78	5
79	38
80	14
81	46
82	21
83	53
84	56
85	24
88	6
91	9
92	3
93	15
94	13
95	44
96	108
97	42
98	15
99	7
100	12
102	2
103	2
105	7
106	8
107	20
108	50
109	50
110	21
111	21
112	287
113	81
114	243
115	19
116	4
120	13
121	9
122	28
123	66
124	13
126	14
148	10
150	23
151	6
153	9
160	3
162	4
164	54
165	16
166	6
168	11
169	4
172	2
174	8
176	4
178	6
182	194
183	27
184	2
186	2
192	46
193	31
196	3
206	54
207	10
210	45
211	10
222	56
223	9
224	41
225	6
232	17
234	44
235	5
250	161
251	25
252	8
253	2
266	13
267	39
268	8
