Mass Spectrum: 6-Benzyl-3-methylsulfanyl-2H-[1,2,4]triazin-5-one
Formula: C11H11N3OS
CAS: 7338-74-1
Molecular weight: 233
m/z	intensity
33	4
34	4
35	0
36	2
37	8
38	26
39	134
40	38
41	64
42	39
43	176
45	130
46	80
47	161
48	526
49	25
50	104
51	187
52	38
53	27
54	12
55	10
56	2
57	5
58	10
59	20
60	8
61	12
62	27
63	84
64	35
65	145
66	12
69	999
70	47
71	5
72	12
73	35
74	158
75	42
76	47
77	164
78	36
79	7
80	1
81	1
82	2
83	1
84	1
85	2
86	17
87	9
88	32
89	125
90	149
91	525
92	41
93	2
94	9
95	1
96	1
97	0
98	2
99	1
100	1
101	10
102	41
103	72
104	27
105	10
106	10
107	2
108	0
110	0
112	0
113	2
114	7
115	37
116	170
117	272
118	184
119	15
120	0
121	0
122	0
123	1
124	0
126	0
127	1
128	1
129	4
130	7
131	67
132	27
133	5
134	0
135	1
136	0
137	1
140	0
142	9
143	13
144	63
145	8
146	2
148	26
149	3
150	2
155	1
156	1
157	2
158	16
159	6
160	2
162	0
163	2
164	0
165	0
169	1
170	1
171	0
172	0
173	0
174	0
175	2
176	0
183	0
184	1
185	2
186	13
187	2
188	1
189	1
190	3
199	0
200	3
201	0
204	2
205	1
216	1
218	50
219	10
220	2
225	0
232	174
233	783
234	108
235	41
236	4
