Mass Spectrum: 2-Brom-1-(2,3-dihydroindol-1-yl)ethanone
Formula: C10H10BrNO
CAS: 73392-01-5
Molecular weight: 239
m/z	intensity
12	2
13	13
14	75
15	15
16	1
17	2
18	10
25	1
26	18
27	56
28	34
29	8
30	3
31	0
36	0
37	16
38	41
39	155
40	24
41	47
42	151
43	12
44	2
45	0
46	1
47	0
49	4
50	62
51	107
52	49
53	11
54	5
55	1
56	1
57	1
59	5
60	0
61	14
62	54
63	158
64	70
65	268
66	20
67	3
68	0
69	0
70	0
71	0
72	0
73	3
74	17
75	21
76	26
77	80
78	33
79	33
80	8
81	15
82	6
83	0
84	4
85	3
86	8
87	11
88	13
89	253
90	195
91	411
92	43
93	61
94	6
95	58
96	1
97	0
98	1
99	1
100	0
101	3
102	8
103	24
104	10
105	24
106	3
107	0
111	0
112	0
113	0
114	3
115	20
116	24
117	232
118	761
119	999
120	91
121	35
122	4
123	32
124	0
128	37
129	5
130	42
131	17
132	101
133	11
134	0
140	0
142	1
143	0
144	1
146	18
147	2
149	0
159	2
160	22
161	3
210	0
212	0
237	1
239	169
240	21
241	173
242	21
243	1
