Mass Spectrum: 3-Oxa-4-azabicyclo[4.2.0]oct-1(6)-ene, 2,2,5,5,7,7,8,8-octafluoro-4-(trifluoromethyl)-
Formula: C7F11NO
CAS: 734-30-5
Molecular weight: 323
m/z	intensity
30	50
31	120
43	5
47	20
50	30
55	40
62	10
64	5
69	999
71	10
74	120
81	5
86	10
90	10
93	170
100	45
105	50
112	100
114	45
117	20
121	20
124	230
131	5
136	10
138	40
143	110
155	570
157	5
159	10
162	10
164	10
166	20
169	20
174	70
188	60
193	40
205	70
212	70
216	25
219	5
224	615
225	40
238	40
240	50
243	10
254	5
266	5
304	60
323	5
