Mass Spectrum: N,N'-Bis(2-hydroxyethyl)-1,7-dioxa-4,10-diazacyclododecane
Formula: C12H26N2O4
CAS: 73402-20-7
Molecular weight: 262
m/z	intensity
34	1
38	2
39	10
40	43
41	97
42	370
43	144
44	205
45	201
46	5
51	24
52	2
53	6
54	35
55	51
56	374
57	130
58	198
59	16
60	3
61	2
63	1
64	2
65	8
66	1
67	9
68	20
69	116
70	192
71	73
72	163
73	30
74	152
75	10
76	3
77	3
78	9
79	9
80	5
81	8
82	42
83	51
84	88
85	48
86	137
87	62
88	518
89	28
90	4
91	4
92	1
93	5
94	10
95	18
96	14
97	17
98	49
99	23
100	699
101	91
102	464
103	27
104	26
105	4
106	4
107	6
108	3
109	10
110	6
111	21
112	68
113	129
114	156
115	37
116	170
118	999
119	59
120	9
121	2
122	1
123	2
124	3
125	3
126	13
127	6
128	47
129	40
130	94
131	31
132	361
133	23
134	180
135	12
136	1
137	1
138	2
139	1
140	3
141	4
142	7
143	5
144	67
145	8
146	29
147	5
148	12
149	32
150	9
151	1
155	1
156	7
157	4
158	8
159	1
160	9
168	1
169	2
170	1
171	4
172	2
173	9
174	5
175	1
176	2
183	3
184	1
185	4
187	7
188	1
189	1
199	2
200	1
201	12
202	9
203	12
204	1
213	7
214	8
215	5
217	7
218	5
219	4
231	69
232	32
233	4
244	21
245	11
262	47
263	5
