Mass Spectrum: Acetohydroxamic acid, 2-chloro-N-cyclohexyl-
Formula: C8H14ClNO2
CAS: 7340-05-8
Molecular weight: 191
m/z	intensity
26	16
27	169
28	107
29	136
30	30
31	18
34	4
35	2
37	15
38	10
39	190
41	552
42	170
43	101
44	33
45	10
46	37
47	3
48	8
49	176
50	11
51	73
52	18
53	61
54	146
55	999
56	85
57	6
58	4
59	58
60	6
63	5
64	2
65	10
66	9
67	201
68	34
69	31
70	12
71	2
72	212
73	13
74	6
75	2
76	10
77	144
78	8
79	60
80	8
81	71
82	290
83	887
84	63
85	3
86	10
94	23
95	3
96	15
97	5
98	37
99	4
106	3
109	13
110	340
111	13
112	110
113	3
114	14
115	70
116	5
119	3
124	2
132	7
134	2
138	2
140	4
142	13
148	9
150	4
156	2
157	0
173	19
174	21
175	9
176	7
191	87
192	30
193	31
194	9
