Mass Spectrum: 1-Methyl-3-neo-pentyl-2,4,5-trioxoimidazolidine
Formula: C9H14N2O3
CAS: 73429-72-8
Molecular weight: 198
m/z	intensity
40	10
41	220
42	20
43	20
53	10
55	100
56	160
57	999
58	130
69	10
70	20
86	10
98	70
129	30
130	10
142	280
143	50
183	60
198	80
