Mass Spectrum: 1,3,5,7,9-Pentaethyl-1,9-dibutoxypentasiloxane
Formula: C18H48O6Si5
CAS: 73420-35-6
Molecular weight: 500
m/z	intensity
26	117
27	454
28	299
29	569
39	104
40	80
41	651
42	138
43	490
44	164
55	235
56	336
57	999
58	168
59	151
60	108
61	36
63	5
69	59
70	88
71	181
72	17
73	177
74	14
87	151
88	27
89	23
101	17
102	13
103	23
115	58
116	16
137	55
138	9
139	9
165	53
166	8
167	14
183	16
193	68
194	13
195	10
197	18
198	4
209	35
210	9
211	20
212	8
223	98
224	10
225	26
226	6
237	14
238	5
239	28
240	9
241	8
251	5
252	2
253	41
254	6
255	11
265	9
266	4
267	156
268	58
269	40
270	9
281	111
282	32
283	27
284	9
297	16
298	4
299	19
300	4
309	18
310	5
311	9
325	17
326	7
327	78
328	22
329	14
339	9
340	3
341	501
342	194
343	61
344	17
355	650
356	188
357	120
358	30
371	127
372	38
373	6
399	28
400	9
413	39
414	10
