Mass Spectrum: 6-Octenoic acid, 3-ethenyl-3,7-dimethyl-2-methylene-, methyl ester
Formula: C14H22O2
CAS: 73421-23-5
Molecular weight: 222
m/z	intensity
25	7
27	101
28	19
29	91
31	4
35	27
36	8
37	8
38	5
39	152
40	35
41	686
42	37
43	129
44	6
45	30
51	17
52	27
53	144
54	37
55	999
56	54
57	22
58	4
59	122
60	4
61	3
63	11
64	4
65	74
66	27
67	291
68	69
69	388
70	27
71	15
73	13
74	7
75	14
77	190
78	38
79	410
80	101
81	258
82	554
83	19
91	140
92	37
93	224
94	57
95	120
96	64
97	35
98	12
99	8
101	4
103	19
104	6
105	82
106	40
107	290
108	102
109	129
110	49
111	44
112	7
113	6
114	4
115	12
116	4
117	14
118	12
119	174
120	46
121	141
122	35
123	43
124	9
125	133
126	27
127	9
128	15
129	12
130	3
131	11
132	6
133	47
134	36
135	58
136	42
137	43
138	33
139	85
140	201
141	35
142	5
145	5
146	6
147	181
148	40
149	38
150	8
151	77
152	36
153	28
154	20
155	5
157	6
161	20
162	53
163	179
164	26
165	54
166	45
167	18
168	4
173	11
175	65
176	9
177	3
178	4
179	155
180	31
181	6
189	8
190	42
191	27
193	18
194	16
195	3
207	83
208	12
222	28
223	4
