Mass Spectrum: 1H-1,2,4-Triazole, 3-bromo-
Formula: C2H2BrN3
CAS: 7343-33-1
Molecular weight: 147
m/z	intensity
36	5
38	246
39	286
40	252
41	407
42	999
43	49
45	7
53	26
55	6
67	17
68	28
79	466
80	49
81	450
82	52
91	224
92	70
93	223
94	56
95	3
105	16
106	52
107	15
108	49
118	25
119	95
120	335
121	95
122	332
146	6
147	899
148	34
149	892
150	30
