Mass Spectrum: Benzene, 2,4-dinitro-1-[(phenylmethyl)thio]-
Formula: C13H10N2O4S
CAS: 7343-61-5
Molecular weight: 290
m/z	intensity
41	13
43	7
44	7
45	25
46	2
47	0
50	9
51	23
52	5
53	3
54	0
55	4
56	3
57	5
58	1
61	2
62	13
63	55
64	9
65	114
66	6
67	1
69	19
70	3
71	3
72	2
73	3
74	7
75	8
76	3
77	14
78	4
79	9
80	1
81	5
82	3
83	4
84	0
85	2
86	1
87	1
88	1
89	21
91	999
92	78
93	6
94	0
95	19
96	2
97	3
98	1
99	2
102	0
104	0
105	10
106	4
107	51
108	4
109	1
110	0
111	1
112	0
113	0
114	0
115	2
121	12
122	2
123	3
125	0
126	1
127	0
135	2
136	2
137	3
138	0
139	3
145	0
147	0
149	2
150	1
151	4
152	7
153	2
154	1
163	3
164	3
165	7
166	2
167	1
168	2
169	0
170	0
171	1
181	0
183	2
184	38
185	3
186	2
198	1
199	3
200	4
210	1
212	1
225	0
242	1
244	2
256	5
257	0
260	3
273	0
290	32
291	5
292	2
