Mass Spectrum: 1H-1,2,4-Triazole, 3,5-dimethyl-
Formula: C4H7N3
CAS: 7343-34-2
Molecular weight: 97
m/z	intensity
37	13
38	15
39	218
40	58
41	230
42	76
43	43
44	42
53	35
54	43
55	39
56	196
57	14
67	86
68	999
69	172
70	20
81	11
82	145
83	9
96	51
97	233
98	17
