Mass Spectrum: 1,3-Propanediol, 2-hydroxymethyl-2-nitro-, triacetate
Formula: C10H15NO8
CAS: 7344-23-2
Molecular weight: 277
m/z	intensity
14	2
15	17
26	1
27	4
28	6
29	9
30	11
31	4
38	1
39	14
40	10
41	18
43	999
44	24
45	5
46	2
51	1
52	1
53	2
54	1
55	5
56	3
57	9
58	2
60	1
61	18
68	41
69	20
70	5
71	1
72	2
73	10
74	18
75	1
82	2
83	1
85	15
86	14
87	101
88	6
89	1
90	2
97	1
98	6
99	21
100	10
101	5
103	13
104	1
105	1
110	63
111	5
112	2
113	1
114	1
115	9
116	76
117	4
118	1
127	11
128	48
129	565
130	37
131	4
133	1
145	2
146	1
147	1
158	17
159	1
170	6
171	15
172	1
175	1
187	1
188	9
189	1
231	8
232	1
