Mass Spectrum: 2-Isopropylthiothymine
Formula: C8H12N2OS
CAS: 73471-99-5
Molecular weight: 184
m/z	intensity
52	38
53	42
54	275
55	508
56	59
59	80
60	63
81	63
82	97
83	245
84	999
85	42
86	42
109	84
110	220
111	30
142	779
143	84
151	834
152	46
169	203
170	12
184	390
185	32
186	12
