Mass Spectrum: 2-Amino-1-(o-hydroxyphenyl)propane
Formula: C9H13NO
CAS: 73470-00-5
Molecular weight: 151
m/z	intensity
44	999
45	46
51	34
65	18
77	49
91	32
105	16
107	25
108	14
115	11
117	7
119	15
133	13
134	10
151	79
152	10
