Mass Spectrum: Pyrimidine-2,4,6(1H,3H,5H)-trione, 1-methyl-5-nitro-
Formula: C5H5N3O5
CAS: 73470-26-5
Molecular weight: 187
m/z	intensity
33	5
34	1
36	1
37	0
38	8
39	27
40	72
41	153
42	295
43	200
44	423
46	262
48	73
49	0
50	6
51	8
52	13
54	172
56	703
57	276
58	511
59	23
60	3
61	0
62	1
64	58
65	16
66	11
69	562
70	999
72	149
73	9
74	0
76	2
78	2
80	167
81	60
82	19
83	27
84	19
85	22
86	14
87	53
88	6
89	0
94	2
95	0
96	3
98	201
99	45
100	170
101	7
102	0
103	0
105	0
108	0
110	0
111	10
112	33
113	58
114	21
115	4
116	2
123	2
125	10
126	602
128	393
130	5
133	0
139	10
140	16
141	20
142	5
143	2
144	3
147	0
148	0
149	0
154	4
155	1
156	2
157	3
158	1
165	0
166	0
167	5
169	611
170	55
171	63
172	4
184	0
185	5
187	504
188	32
189	6
190	0
