Mass Spectrum: 2-Isopropylthiouracil
Formula: C7H10N2OS
CAS: 73471-98-4
Molecular weight: 170
m/z	intensity
53	67
58	31
59	90
60	61
67	90
68	108
69	511
70	999
71	38
74	42
75	70
95	291
96	380
97	61
128	800
129	169
130	36
137	871
138	67
155	266
156	42
170	570
171	47
172	30
