Mass Spectrum: 1H-Isoindole-1,3(2H)-dione, 2-(4-oxo-4-phenylbutyl)-
Formula: C18H15NO3
CAS: 7347-68-4
Molecular weight: 293
m/z	intensity
50	50
51	80
76	90
77	390
78	60
104	60
105	999
106	80
120	679
121	60
133	100
146	889
147	110
160	190
161	50
174	170
293	20
