Mass Spectrum: (+-)-(7S,8R,S)-cis-8-Ethoxybicyclo[4.3.0]-3-nonene-7-carboxylic acid
Formula: C12H18O3
CAS: 73472-06-7
Molecular weight: 210
m/z	intensity
26	60
27	320
29	290
30	20
31	140
38	30
39	290
40	60
41	350
42	40
43	110
44	130
45	80
46	30
47	40
50	40
51	90
52	50
53	130
54	100
55	120
56	40
57	120
58	40
59	30
60	60
61	10
62	30
63	50
64	30
65	120
66	260
67	130
68	130
69	50
70	40
71	50
72	30
73	200
74	20
75	10
76	20
77	240
78	150
79	999
80	100
81	90
82	80
83	60
84	20
85	70
86	730
87	50
88	20
89	30
90	20
91	380
92	440
93	130
94	70
95	60
96	20
97	40
98	20
99	30
101	120
102	10
103	30
104	80
105	80
106	30
107	30
108	20
109	30
110	120
111	40
112	20
114	350
115	90
116	50
117	190
118	230
119	500
120	110
121	110
122	20
123	30
124	20
125	20
135	40
136	50
137	20
138	20
145	30
146	80
147	30
148	30
149	50
150	20
163	80
164	210
165	50
166	30
167	30
191	20
192	340
193	60
209	10
210	40
211	15
