Mass Spectrum: 3,5-Octadiene, (Z,Z)-
Formula: C8H14
CAS: 7348-80-3
Molecular weight: 110
m/z	intensity
24	2
25	4
26	34
27	330
29	137
30	7
32	4
33	12
34	12
35	7
37	20
38	57
39	452
40	122
41	563
42	31
43	65
44	9
45	21
46	4
47	5
48	14
49	8
50	60
51	115
52	58
53	300
54	88
55	415
56	45
57	6
58	1
60	2
61	4
62	7
63	22
64	6
65	103
66	39
67	684
68	685
69	69
73	4
74	10
75	1
76	1
77	138
78	27
79	363
80	69
81	999
82	103
83	2
85	3
89	2
91	44
92	2
93	66
94	3
95	333
96	25
109	4
110	431
111	38
112	2
