Mass Spectrum: 4'-Chloro-2'-nitro-N-benzenesulfoanilide
Formula: C12H9ClN2O4S
CAS: 735-58-0
Molecular weight: 312
m/z	intensity
41	2
43	0
44	0
45	7
46	1
47	2
48	0
49	15
50	72
51	322
52	43
53	11
54	0
55	2
57	1
58	1
60	2
61	12
62	47
63	128
64	23
65	19
66	6
67	0
69	6
70	1
71	1
72	4
73	21
74	15
75	22
77	999
78	149
79	9
80	3
81	3
82	1
84	2
85	4
86	5
87	3
88	14
89	11
90	24
91	5
92	3
94	19
95	2
97	37
98	21
99	8
100	9
101	1
102	3
103	9
104	1
105	0
106	1
108	2
109	2
110	1
111	13
112	5
113	16
114	3
115	7
116	1
120	0
122	0
124	19
125	77
126	13
127	6
128	0
129	1
137	2
138	3
139	12
141	927
142	111
144	2
145	0
149	2
151	1
152	1
153	6
154	6
155	7
156	2
157	3
158	1
164	2
166	18
167	10
168	2
169	0
171	10
172	3
173	3
174	1
175	1
177	0
179	1
185	0
188	0
190	0
191	0
197	0
200	0
201	8
202	3
203	7
204	2
205	2
213	0
214	1
215	25
217	8
218	1
219	0
220	0
231	3
232	2
233	1
234	1
247	0
248	6
249	0
250	3
261	0
264	0
265	1
266	0
267	17
269	8
270	0
277	1
295	4
296	23
297	6
298	2
299	1
311	2
312	413
313	77
314	141
315	20
316	5
317	0
