Mass Spectrum: 6H-Purin-6-one, 1,7-dihydro-2-[[2-oxo-2-(2-thienyl)ethyl]thio]-
Formula: C11H8N4O2S2
CAS: 73514-55-3
Molecular weight: 292
m/z	intensity
40	15
41	81
42	95
43	120
45	47
46	10
51	4
52	120
53	130
54	35
58	3
60	28
61	3
64	41
65	10
66	15
69	19
70	24
71	24
72	18
73	346
74	4
82	35
83	180
84	50
94	10
95	14
97	94
98	12
105	6
106	5
107	2
108	3
109	15
110	230
111	999
112	179
113	130
114	5
118	4
121	4
122	80
123	10
124	55
125	11
126	175
135	140
136	49
140	283
141	40
142	3
148	5
150	9
151	4
152	4
153	1
154	1
156	1
158	2
167	182
168	330
169	31
170	1
181	362
182	61
183	27
208	6
209	60
210	11
216	22
217	5
231	16
232	23
233	12
235	5
248	5
249	35
250	6
259	49
260	87
261	3
262	5
264	60
265	6
266	10
274	30
275	13
287	5
291	5
292	287
293	60
294	31
