Mass Spectrum: Benzeneethanamine, N-[[4-benzyloxy-3-methoxyphenyl]acetyl]-3,4-dibenzyloxt
Formula: C38H37NO5
CAS: 73515-57-8
Molecular weight: 587
m/z	intensity
41	12
42	7
43	9
44	41
45	69
46	1
48	1
49	1
50	9
51	17
52	7
53	3
54	1
55	5
56	3
57	3
58	0
59	0
60	2
61	4
62	8
63	22
64	7
65	107
66	8
67	2
68	1
69	3
70	1
71	3
72	0
73	1
74	2
75	1
76	2
77	19
78	9
79	9
80	2
81	2
82	1
83	2
84	2
85	2
86	2
87	1
88	0
89	28
90	19
91	999
92	41
93	4
94	6
95	2
96	1
97	2
98	1
99	0
100	0
101	0
103	1
104	3
105	20
106	12
107	13
108	6
109	2
110	1
111	1
115	1
116	0
117	1
118	1
119	2
120	9
121	4
122	12
123	12
124	2
125	1
127	0
128	1
129	1
131	0
132	1
133	1
134	77
135	20
136	15
137	129
138	13
139	2
140	0
141	1
142	0
146	0
147	2
148	6
149	4
150	13
151	11
152	11
153	3
154	1
155	1
161	0
162	0
163	6
164	4
165	5
166	5
167	11
168	2
169	1
170	1
171	0
172	1
173	0
177	1
178	2
179	6
180	12
181	87
182	19
183	2
184	1
185	0
191	0
192	4
193	2
194	14
195	10
196	3
197	4
198	2
199	1
206	2
207	2
208	3
209	3
210	11
211	11
212	4
213	7
214	3
215	0
221	0
222	0
223	4
224	25
225	63
226	40
227	37
228	6
229	1
237	1
238	2
239	6
240	4
241	2
242	12
243	2
244	0
252	1
253	2
254	2
255	1
256	2
257	1
262	0
267	0
268	1
269	1
270	9
271	24
272	9
273	1
282	3
283	1
284	4
285	2
286	0
287	1
296	0
297	1
298	2
299	1
300	0
301	2
302	1
303	1
304	1
314	1
315	4
316	90
317	27
318	5
319	0
328	0
329	0
330	0
332	2
333	0
343	1
344	2
345	1
346	1
347	0
358	0
359	2
360	11
361	5
362	1
374	2
375	1
404	1
405	0
406	2
407	3
408	0
434	1
435	0
478	2
479	1
495	4
496	9
497	3
498	0
587	11
588	4
589	1
