Mass Spectrum: Silane, 9H-fluoren-9-ylidenebis[trimethyl-
Formula: C19H26Si2
CAS: 7351-45-3
Molecular weight: 310
m/z	intensity
24	0
25	0
26	1
27	0
28	3
29	5
30	1
31	5
33	2
36	0
39	1
40	0
41	0
42	0
43	36
44	12
45	150
46	9
47	5
50	0
51	0
52	0
53	7
54	0
55	2
56	0
57	4
58	5
59	75
60	6
61	2
62	0
63	1
65	0
66	0
67	1
68	0
69	0
70	0
71	2
72	6
73	999
74	79
75	34
76	3
77	3
78	0
79	0
80	0
81	0
83	1
84	0
85	4
86	0
87	1
88	1
89	1
90	0
91	0
92	0
93	1
95	0
96	0
97	0
98	0
99	1
100	0
101	1
102	1
103	2
104	0
105	1
106	0
108	0
110	0
111	0
112	0
113	0
114	0
115	2
116	1
117	7
118	1
119	1
120	0
121	1
122	1
123	1
124	0
125	0
126	1
127	1
128	1
129	3
130	1
131	1
132	0
133	0
135	0
137	0
139	3
140	2
142	4
143	3
144	2
145	1
147	1
148	1
150	1
151	2
152	6
153	3
154	1
155	3
156	1
157	1
158	2
159	4
161	1
163	3
164	3
165	26
166	7
167	3
168	1
169	2
170	1
171	2
175	1
176	5
177	7
178	39
179	22
180	9
181	10
182	2
183	1
184	1
185	1
189	5
190	5
191	9
192	11
193	16
194	6
195	46
196	9
197	3
199	1
201	1
203	4
204	5
205	16
206	6
207	33
208	7
209	3
212	1
215	5
216	4
217	7
218	5
219	21
220	11
222	713
223	156
224	42
225	5
226	1
227	0
230	0
231	0
232	0
233	1
234	0
235	3
236	1
237	2
238	1
239	0
241	0
245	0
247	0
248	0
249	0
250	0
251	1
252	0
253	0
259	0
260	0
262	0
263	1
264	1
265	1
266	0
267	1
268	0
277	0
278	0
279	3
280	1
281	0
291	0
293	0
295	50
296	14
297	5
298	1
308	0
310	42
311	13
312	5
313	0
