Mass Spectrum: Perillyl benzoate
Formula: C17H20O2
CAS: 73524-02-4
Molecular weight: 256
m/z	intensity
39	23
40	15
41	63
42	14
45	8
50	19
51	38
53	35
55	34
61	6
66	12
67	54
68	83
69	29
76	17
77	240
78	35
79	117
80	23
91	217
92	135
93	67
94	22
105	999
106	192
107	32
119	244
120	30
121	18
123	26
134	230
135	26
150	9
151	12
256	10
