Mass Spectrum: 1,1'-Bicyclopentyl-2,2'-diol
Formula: C10H18O2
CAS: 73522-20-0
Molecular weight: 170
m/z	intensity
41	350
42	60
43	120
45	120
53	90
54	120
55	260
56	60
57	260
66	90
67	530
68	150
69	60
70	200
79	180
80	150
81	200
82	90
83	200
84	999
85	90
91	60
92	60
93	260
94	30
95	260
96	30
97	60
106	60
108	440
109	60
152	30
170	10
