Mass Spectrum: 3-Hydroxyhex-4-enethioic acid, S-t-butyl ester
Formula: C10H18O2S
CAS: 735269-09-7
Molecular weight: 202
m/z	intensity
25	4
26	20
27	149
29	310
30	6
31	21
33	4
34	2
36	3
37	19
38	34
39	291
40	51
41	566
42	125
43	165
44	36
45	24
46	4
47	24
48	2
49	19
50	12
51	17
52	6
53	78
54	8
55	65
56	42
57	999
58	57
59	56
60	5
61	12
62	3
63	6
64	3
65	16
66	10
67	78
68	343
69	244
70	200
71	954
72	47
73	6
74	17
75	88
76	25
77	10
78	2
79	2
80	2
81	4
82	3
83	9
84	259
85	29
86	28
87	9
88	3
89	12
90	122
91	11
92	6
93	4
94	3
95	167
96	14
97	9
98	3
99	12
100	5
101	14
102	2
103	7
104	5
105	5
106	2
107	3
108	2
109	2
110	4
111	32
112	40
113	111
114	7
115	4
116	2
117	4
118	7
119	3
120	4
121	3
122	2
123	2
124	2
125	2
126	2
127	5
128	29
129	7
130	4
131	2
132	19
133	3
134	4
135	2
136	2
141	4
142	3
143	3
144	5
145	42
146	385
147	35
148	20
184	8
