Mass Spectrum: Valeric acid, 2-cyano-4-methyl-, ethyl ester
Formula: C9H15NO2
CAS: 7352-02-5
Molecular weight: 169
m/z	intensity
41	315
42	85
43	241
44	40
45	60
50	13
51	22
52	40
53	85
54	999
55	180
56	49
57	337
58	20
59	15
64	20
65	15
66	27
67	65
68	130
69	49
70	18
71	27
72	60
77	15
79	18
80	49
81	36
82	427
83	36
85	195
86	51
87	11
88	18
91	15
92	13
93	60
94	60
95	56
96	92
97	117
98	150
99	85
100	18
101	42
105	15
106	58
107	18
108	42
109	22
110	407
111	45
112	24
113	94
114	49
115	22
121	15
122	18
123	36
124	94
125	18
126	281
127	18
140	36
141	49
142	18
169	101
170	20
171	15
