Mass Spectrum: Ethanamine, N-(ethoxymethyl)-N-ethyl-
Formula: C7H17NO
CAS: 7352-03-6
Molecular weight: 131
m/z	intensity
40	39
41	148
42	999
43	178
44	396
45	326
46	118
52	9
54	89
55	69
56	217
57	118
58	198
59	69
68	29
70	346
71	29
72	306
73	29
84	29
85	247
86	475
87	79
102	19
116	19
131	29
