Mass Spectrum: Ethanone, 1-(3-cyclohexen-1-yl)-
Formula: C8H12O
CAS: 7353-76-6
Molecular weight: 124
m/z	intensity
14	6
15	51
17	2
18	7
26	13
27	125
28	27
29	29
30	1
31	7
33	1
37	7
38	17
39	152
40	32
41	164
42	22
43	999
44	28
45	42
46	3
47	4
48	3
49	4
50	28
51	59
52	30
53	194
54	71
55	114
56	8
57	17
58	11
59	7
60	2
64	4
65	74
66	181
67	73
68	14
69	15
70	33
71	30
72	3
73	3
74	5
75	8
76	3
77	116
78	41
79	443
80	320
81	878
82	75
83	26
84	3
85	2
86	2
87	9
88	2
104	2
105	16
106	17
107	12
108	5
109	145
110	12
111	3
118	9
119	2
120	14
121	5
122	3
123	20
124	582
125	55
126	3
