Mass Spectrum: 2-Butenoic acid, 2-methylpropyl ester, (E)-
Formula: C8H14O2
CAS: 73545-15-0
Molecular weight: 142
m/z	intensity
15	5
26	5
27	30
28	18
29	47
30	1
31	5
32	1
33	1
37	5
38	10
39	127
40	31
41	297
42	23
43	24
44	3
45	5
50	3
51	2
52	1
53	5
54	2
55	28
56	239
57	42
58	2
67	1
68	37
69	999
70	58
71	6
72	3
73	18
74	1
82	1
83	1
84	1
85	8
86	7
87	439
88	19
89	2
97	1
99	32
100	3
101	2
109	1
112	6
113	1
127	9
142	2
143	1
