Mass Spectrum: cis-3-Hexenal diethyl acetal
Formula: C10H20O2
CAS: 73545-18-3
Molecular weight: 172
m/z	intensity
26	42
27	317
28	94
29	527
30	17
31	189
32	12
38	8
39	188
40	27
41	435
42	82
43	231
44	89
45	123
46	23
47	999
48	9
50	6
51	18
52	8
53	78
54	42
55	464
56	53
57	142
58	13
59	43
60	4
61	5
63	2
65	14
66	8
67	61
68	13
69	139
70	38
71	17
72	44
73	33
74	5
75	519
76	15
77	21
78	4
79	36
80	29
81	191
82	26
83	212
84	12
85	34
95	3
97	45
98	42
99	86
100	8
101	5
103	641
104	35
111	39
125	3
126	137
127	146
128	13
129	26
