Mass Spectrum: 3,4,5-Tribromotoluene
Formula: C7H5Br3
CAS: 73557-59-2
Molecular weight: 326
m/z	intensity
48	17
49	126
50	133
51	89
52	4
55	4
60	33
61	216
62	516
63	723
64	44
72	4
73	64
74	153
75	21
77	4
79	158
81	165
82	29
83	149
84	227
85	162
86	199
87	276
88	300
89	999
90	70
91	4
93	18
104	10
105	4
111	10
116	26
117	55
118	19
119	44
123	99
124	162
125	68
128	56
130	56
140	18
141	48
142	17
143	44
151	19
152	4
153	13
154	4
155	9
158	5
160	23
162	16
163	43
165	31
166	13
167	165
168	342
169	179
170	346
171	27
197	13
221	18
223	19
245	15
246	24
247	303
248	90
249	583
250	74
251	298
252	21
325	51
326	268
327	139
328	791
329	179
330	775
331	91
332	246
333	17
