Mass Spectrum: para-2-Cyclohexenyloxybenzoic acid
Formula: C13H14O3
CAS: 7355-51-3
Molecular weight: 218
m/z	intensity
15	3
26	9
27	102
28	9
29	21
31	1
37	8
38	35
39	156
40	16
41	131
42	6
43	3
45	13
49	1
50	36
51	61
52	34
53	184
54	17
55	32
56	1
61	5
62	18
63	67
64	35
65	113
66	32
67	7
68	4
69	3
71	1
73	1
74	8
75	11
76	13
77	98
78	22
79	335
80	769
81	999
82	64
83	2
89	2
90	1
91	9
92	20
93	23
94	4
95	16
96	1
97	1
102	1
103	5
104	3
105	5
106	1
107	6
108	1
109	20
110	4
115	7
116	2
117	4
118	2
119	4
120	3
121	87
122	7
123	1
127	3
128	4
129	2
130	1
131	6
132	1
133	1
135	2
137	9
138	36
139	167
140	13
141	2
144	2
145	6
146	1
147	2
151	2
157	1
158	1
159	1
164	1
171	1
172	1
173	1
175	3
189	1
201	1
203	1
217	1
218	48
219	9
220	1
