Mass Spectrum: Phosphinothioic chloride, (4-morpholinyl)phenyl-
Formula: C10H13ClNOPS
CAS: 73577-36-3
Molecular weight: 261
m/z	intensity
39	18
41	28
42	66
43	19
44	24
50	28
51	113
54	28
55	57
56	283
57	38
58	66
59	19
63	169
77	189
78	70
81	19
84	19
85	19
86	999
87	66
91	19
107	85
108	19
109	38
139	113
140	33
141	28
143	255
144	19
145	80
175	255
176	85
177	104
178	38
192	19
204	47
206	28
218	19
219	9
226	52
227	19
228	311
229	47
230	104
231	19
261	283
262	42
263	104
264	19
