Mass Spectrum: p-(4-Ethylcyclohexyl)benzonitrile
Formula: C15H19N
CAS: 73592-81-1
Molecular weight: 213
m/z	intensity
14	3
15	3
26	7
27	126
28	13
29	157
30	4
37	2
38	9
39	167
40	22
41	393
42	66
43	266
44	9
50	24
51	53
52	22
53	60
54	72
55	502
56	115
57	10
58	1
59	1
61	3
62	12
63	40
64	17
65	28
66	16
67	153
68	58
69	296
70	72
71	119
72	7
74	9
75	26
76	35
77	66
78	28
79	28
80	26
81	469
82	119
83	41
84	500
85	33
86	2
87	7
88	11
89	95
90	30
91	19
92	5
93	5
94	7
95	144
96	29
97	95
98	8
99	4
100	8
101	34
102	74
103	88
104	106
105	12
106	6
107	31
108	236
109	71
110	204
111	18
112	1
113	11
114	19
115	131
116	760
117	240
118	29
119	5
120	1
121	3
122	2
125	2
126	7
127	39
128	102
129	999
130	537
131	107
132	10
133	2
134	7
135	1
138	1
139	4
140	79
141	34
142	448
143	472
144	129
145	111
146	13
147	2
151	3
152	7
153	16
154	30
155	24
156	66
157	55
158	27
159	22
160	3
161	2
164	1
165	1
166	8
167	39
168	20
169	6
170	32
171	9
172	9
173	1
177	1
178	1
180	2
181	5
182	10
183	15
184	191
185	63
186	9
187	1
195	2
196	4
197	1
198	20
199	4
211	2
212	31
213	887
214	155
215	13
