Mass Spectrum: 2-Furancarboxaldehyde, 5-nitro-, [(5-nitro-2-furanyl)methylene]hydrazone
Formula: C10H6N4O6
CAS: 736-53-8
Molecular weight: 278
m/z	intensity
33	4
34	5
35	7
37	70
38	488
39	110
40	63
41	40
43	47
44	28
46	30
47	1
50	168
51	999
52	97
54	207
55	29
57	20
59	4
60	4
61	3
62	5
63	15
64	48
65	139
66	25
67	34
68	44
69	14
70	6
71	6
72	2
73	4
74	10
76	25
77	13
79	814
80	85
82	146
83	12
84	3
85	3
86	1
87	2
89	8
90	17
91	18
93	99
94	8
96	72
97	6
98	2
99	1
102	38
103	10
104	4
105	6
106	5
107	6
108	12
109	6
110	6
111	3
112	2
113	1
114	0
115	1
116	1
117	3
118	12
119	46
120	8
121	9
122	6
123	11
125	28
126	2
127	1
129	10
130	12
131	6
133	5
134	3
135	8
136	5
137	10
138	3
139	7
140	4
141	6
142	0
144	1
145	7
146	15
147	24
149	12
150	10
151	3
153	16
155	7
157	3
158	5
159	2
160	1
161	1
162	2
163	7
164	2
165	2
166	11
167	5
168	1
169	1
171	2
172	2
173	3
174	8
175	4
176	18
177	29
178	3
179	1
180	1
181	1
182	0
183	0
184	0
185	0
186	0
187	1
188	0
189	0
190	2
191	9
193	129
194	6
195	2
196	0
197	0
199	0
200	0
201	0
202	0
203	0
204	2
205	1
207	1
208	1
209	0
210	0
211	0
212	0
213	0
214	0
215	0
216	0
217	0
218	0
219	0
220	1
221	0
222	1
223	0
224	0
225	0
227	0
230	0
231	0
232	0
233	0
234	0
235	0
248	16
249	2
250	0
261	0
262	1
263	0
264	0
278	664
279	74
280	11
281	1
282	0
