Mass Spectrum: Cycloheptanecarboxylic acid, 1-methyl-, methyl ester
Formula: C10H18O2
CAS: 7362-77-8
Molecular weight: 170
m/z	intensity
26	27
27	334
28	100
29	315
30	18
31	29
32	10
33	8
37	5
38	22
39	404
40	81
41	709
42	85
43	128
44	6
45	31
46	1
49	1
50	14
51	40
52	22
53	148
54	73
55	645
56	79
57	68
58	5
59	142
60	4
61	6
62	3
63	8
64	2
65	28
66	16
67	162
68	89
69	999
70	65
71	14
72	3
73	47
74	16
75	5
76	1
77	26
78	6
79	30
80	12
81	85
82	71
83	67
84	8
85	10
86	3
87	24
88	375
89	18
90	2
91	18
92	4
93	8
94	5
95	96
96	33
97	11
99	9
100	4
101	231
102	18
103	2
105	2
107	3
108	2
109	27
110	137
111	893
112	80
113	17
114	30
115	14
116	1
120	3
121	1
123	5
124	1
125	1
127	70
128	10
129	2
137	1
138	91
139	21
140	3
141	6
142	1
155	39
156	4
170	55
171	9
172	1
