Mass Spectrum: Cyclohex-3-enecarboxaldehyde, 4-ethoxy-2-oxo-
Formula: C9H12O3
CAS: 73625-77-1
Molecular weight: 168
m/z	intensity
39	210
40	25
43	148
53	94
55	245
65	250
66	60
67	23
69	237
70	72
81	74
83	151
84	40
93	486
94	365
95	252
97	102
104	25
109	62
111	999
112	491
113	26
121	338
123	326
125	20
137	79
138	229
139	284
140	627
141	101
150	60
167	175
168	414
