Mass Spectrum: (N-(-2-Acetamido))-2-aminoethanesulfonic acid
Formula: C4H10N2O4S
CAS: 7365-82-4
Molecular weight: 182
m/z	intensity
12	6
13	7
14	20
15	103
16	101
17	160
18	241
24	9
25	25
26	166
27	244
28	281
29	76
30	496
31	32
32	90
33	41
34	108
35	2
36	6
37	3
38	17
39	38
40	62
41	119
42	209
43	338
44	98
45	136
46	15
47	6
48	453
49	9
50	23
51	12
52	14
53	9
54	14
55	11
56	9
57	6
58	14
59	11
60	23
61	3
62	9
63	6
64	999
65	99
66	53
67	9
68	9
69	10
70	4
71	5
72	2
73	2
74	1
75	2
76	53
77	6
78	27
79	70
80	8
81	40
82	11
83	4
84	4
85	4
86	2
87	2
89	1
90	2
91	8
92	11
93	18
94	6
95	4
96	68
97	3
98	4
100	2
102	2
103	2
104	4
105	3
106	10
107	3
108	5
109	5
110	2
111	2
114	1
115	1
116	1
117	2
118	4
119	9
120	3
121	2
124	4
125	2
126	2
128	1
129	1
130	2
131	1
132	4
133	7
134	4
135	3
136	1
138	2
145	2
146	2
147	2
149	2
157	1
158	1
159	2
160	1
161	1
165	1
167	1
