Mass Spectrum: Alpha,alpha,4-trimethylbenzyl carbanilate
Formula: C17H19NO2
CAS: 7366-54-3
Molecular weight: 269
m/z	intensity
15	3
16	2
17	13
18	5
26	6
27	25
28	17
29	4
31	6
36	1
37	23
38	47
39	111
40	22
41	65
42	7
43	625
44	103
45	34
46	15
47	1
49	5
50	45
51	93
52	38
53	20
54	9
55	3
56	2
57	18
58	8
59	45
60	7
61	15
62	30
63	110
64	238
65	192
66	106
67	36
68	3
69	1
71	1
73	5
74	28
75	17
76	15
77	66
78	21
79	14
80	2
85	1
86	5
87	8
88	5
89	35
90	24
91	619
92	203
93	401
94	29
95	1
97	1
98	2
99	1
101	5
102	20
103	17
104	15
105	67
106	8
107	15
108	1
109	2
113	3
114	4
115	244
116	84
117	661
118	68
119	999
120	82
121	7
122	1
126	3
127	14
128	34
129	29
130	8
131	143
132	858
133	290
134	31
135	518
136	53
137	4
149	2
150	97
151	10
210	2
225	9
226	2
