Mass Spectrum: Naphthalene-1,4-diol, 4-O-benzoyl(ether)
Formula: C17H14O2
CAS: 73661-06-0
Molecular weight: 250
m/z	intensity
41	15
43	2
44	15
45	4
50	30
51	55
52	12
53	8
54	3
55	2
62	8
63	32
65	135
66	5
74	11
75	14
76	32
77	112
78	14
79	8
87	3
89	31
91	999
92	99
93	2
101	4
102	25
103	69
104	19
105	48
106	2
113	2
114	2
115	13
130	3
131	56
132	5
133	3
143	3
158	7
159	214
160	39
161	2
250	23
251	2
