Mass Spectrum: Tricyclo[4.4.0.0(3,8)]decan-2-one
Formula: C10H14O
CAS: 73679-80-8
Molecular weight: 150
m/z	intensity
26	7
27	148
28	13
29	49
30	1
31	2
37	2
38	12
39	227
40	54
41	221
42	22
43	27
44	32
45	3
46	1
50	17
51	58
52	31
53	129
54	132
55	150
56	10
57	41
58	8
59	8
60	5
61	2
62	5
63	18
64	4
65	69
66	134
67	263
68	206
69	20
70	29
71	19
72	35
73	3
74	4
75	4
76	4
77	165
78	169
79	825
80	882
81	525
82	39
83	17
84	11
85	4
86	1
87	2
89	6
90	2
91	267
92	62
93	415
94	224
95	55
96	31
97	5
98	2
101	1
102	2
103	6
104	999
105	106
106	64
107	147
108	35
109	18
110	5
111	4
112	2
113	2
114	2
115	7
116	5
117	182
118	21
119	34
120	7
121	41
122	53
123	7
124	2
125	1
126	2
127	2
128	2
129	3
130	2
131	26
132	261
133	29
134	2
135	22
136	3
149	23
150	866
151	92
152	9
