Mass Spectrum: Phosphinic acid, bis(phenylmethyl)-
Formula: C14H15O2P
CAS: 7369-51-9
Molecular weight: 246
m/z	intensity
33	6
34	9
39	95
40	30
41	33
42	14
43	31
44	26
45	9
47	10
48	4
49	3
50	29
51	51
52	18
53	7
54	2
55	7
56	4
57	6
58	2
59	5
60	5
61	5
62	22
63	67
64	37
65	248
66	12
67	3
68	2
69	5
70	3
71	3
72	0
73	4
74	7
75	7
76	9
77	35
78	33
79	10
80	5
81	4
82	5
83	3
84	2
85	2
86	3
87	4
89	71
91	999
92	201
93	15
94	2
95	2
96	1
97	1
98	1
99	1
100	0
102	5
103	7
104	11
105	12
106	3
107	8
108	2
109	5
110	1
111	1
112	1
113	1
115	5
116	2
117	4
118	4
119	5
120	5
121	10
122	4
123	1
124	0
125	0
126	1
127	1
128	1
129	1
130	1
131	1
132	1
133	2
134	1
135	3
136	1
137	4
138	1
139	5
141	5
142	2
143	0
144	2
145	1
146	1
147	2
148	1
149	1
150	1
151	2
152	2
153	1
155	4
156	1
158	0
159	0
160	0
161	0
162	1
163	0
164	1
165	6
166	7
167	14
168	2
169	0
170	0
171	1
172	0
173	0
174	0
175	1
176	1
177	0
178	3
179	2
180	1
181	2
182	1
183	2
184	0
185	0
186	0
187	2
188	1
189	0
190	0
191	0
195	0
198	0
199	0
201	0
202	0
203	0
209	1
210	0
227	0
228	2
229	0
230	1
235	0
241	0
242	0
243	1
245	45
246	159
247	33
248	3
