Mass Spectrum: Thiophene-3-carbohydrazide, 2-benzoylamino-4,5-dimethyl-
Formula: C14H15N3O2S
CAS: 73696-41-0
Molecular weight: 289
m/z	intensity
33	5
38	7
39	22
40	10
41	6
42	8
43	10
44	11
45	14
49	0
50	32
51	75
53	18
54	5
55	1
57	0
58	26
59	41
60	8
61	1
63	3
65	23
66	39
67	7
68	2
69	5
70	3
71	5
73	0
74	5
75	15
77	567
78	29
80	6
81	2
82	3
83	5
85	4
86	1
88	6
91	1
92	9
93	8
95	3
97	11
98	4
99	5
102	0
103	7
105	999
106	51
107	4
109	2
110	3
111	1
119	0
122	2
124	6
125	13
126	12
127	2
128	0
135	0
136	0
138	2
139	2
141	0
149	0
151	4
152	18
154	260
155	18
156	9
167	3
168	2
171	0
179	5
180	7
181	0
182	0
193	2
194	1
196	1
197	1
209	2
214	2
228	2
229	3
230	2
231	0
252	3
254	7
255	13
256	26
258	989
259	133
260	46
261	6
271	0
274	10
275	10
286	0
287	4
289	247
290	39
291	10
292	1
