Mass Spectrum: 2-Hydroxyimino-3-oxo-butanoic acid, methyl ester
Formula: C5H7NO4
CAS: 73708-95-9
Molecular weight: 145
m/z	intensity
12	7
13	15
14	66
15	467
16	12
17	9
18	4
19	0
24	1
25	4
26	17
27	25
28	31
29	82
30	41
31	21
32	1
33	1
36	0
37	3
38	7
39	9
40	13
41	18
42	131
43	999
44	38
45	12
47	0
50	0
51	3
52	3
54	49
55	6
56	1
57	4
59	35
60	3
61	0
62	0
66	0
67	1
68	2
69	5
70	15
71	3
72	1
73	0
74	0
75	2
77	1
82	0
83	1
84	1
85	3
86	27
87	13
88	0
89	0
91	0
99	2
100	3
102	9
103	0
113	22
114	9
115	1
116	0
127	1
128	5
129	0
130	0
142	0
145	8
146	4
147	0
