Mass Spectrum: Propanoic acid, 3,3'-diselenobis-
Formula: C6H10O4Se2
CAS: 7370-58-3
Molecular weight: 306
m/z	intensity
25	6
26	81
27	464
28	129
29	302
30	7
31	44
39	1
41	4
42	25
43	102
44	72
45	472
46	11
47	1
53	11
54	1
55	718
56	3
57	6
60	14
71	18
72	63
73	999
74	56
75	7
76	11
77	22
78	44
79	37
80	75
81	63
82	44
83	36
84	6
85	3
89	12
90	15
91	36
92	25
93	63
94	42
95	34
96	9
97	11
101	1
102	4
103	25
104	47
105	83
106	78
107	119
108	135
109	55
110	23
111	20
113	3
121	12
122	12
123	33
124	1
125	63
127	11
131	4
132	11
133	18
134	22
135	26
136	36
137	11
138	6
147	1
148	11
149	23
150	39
151	42
152	69
153	56
154	56
155	23
156	56
157	40
158	91
159	29
160	97
161	29
162	33
163	9
164	1
171	1
172	1
173	9
174	4
175	9
177	12
179	1
181	3
182	3
183	6
184	6
185	12
186	4
187	17
188	4
189	6
202	1
204	3
206	1
207	1
208	6
209	7
210	12
211	20
212	26
213	28
214	22
215	31
216	7
217	7
229	3
230	1
231	7
233	7
235	4
300	6
301	4
302	15
303	7
304	28
305	1
306	31
308	9
