Mass Spectrum: 1,2,4-Triazino[5,6-b]indole, 2-benzylthio-
Formula: C16H12N4S
CAS: 73718-26-0
Molecular weight: 292
m/z	intensity
33	0
37	6
38	24
39	111
40	17
41	28
42	22
43	5
44	29
45	45
46	6
47	2
48	0
50	48
51	84
52	35
53	9
54	1
57	1
58	9
59	5
60	3
61	14
62	51
63	121
64	52
65	331
66	18
67	0
68	5
69	17
70	15
71	3
72	3
73	12
74	17
75	56
76	48
77	66
78	25
79	7
80	0
82	4
83	2
84	2
85	10
86	16
87	27
88	43
89	118
90	62
91	999
92	81
93	15
94	7
95	8
96	8
97	3
98	1
99	6
100	7
101	21
102	113
103	14
104	8
105	0
106	1
107	5
108	3
109	1
111	1
112	2
113	5
114	47
115	15
116	22
117	14
118	10
119	15
120	15
121	114
122	33
123	11
124	2
125	0
127	2
128	20
129	44
130	5
131	5
133	3
134	1
135	4
136	1
139	1
140	1
141	5
142	8
143	50
144	23
145	25
146	400
147	39
148	33
149	6
150	2
151	1
152	0
153	2
154	1
155	0
157	4
158	0
160	4
161	4
163	1
164	1
165	0
168	0
169	5
170	44
171	17
172	6
173	119
174	19
175	9
176	4
177	5
178	13
179	8
180	1
186	3
187	19
188	7
189	4
190	3
191	2
192	1
199	1
200	3
201	11
202	4
203	4
204	21
205	9
206	11
207	2
214	3
215	9
216	2
218	3
219	3
220	0
229	6
230	3
231	11
232	9
233	6
234	2
235	1
236	2
245	1
247	1
248	1
252	0
255	0
258	10
259	236
260	44
261	11
262	5
263	17
264	5
265	1
277	2
289	0
291	11
292	283
293	63
294	16
295	2
