Mass Spectrum: [1,2,3,4]Tetrazolo[1,5-a]pyridin-8-amine
Formula: C5H5N5
CAS: 73721-28-5
Molecular weight: 135
m/z	intensity
34	3
36	10
37	86
38	148
39	141
40	83
41	57
42	15
43	36
44	19
45	9
49	28
50	77
51	124
52	463
53	999
54	238
55	88
56	6
57	5
60	4
61	11
62	19
63	23
64	31
65	26
66	27
67	6
68	5
73	3
75	12
76	25
77	29
78	22
79	213
80	610
81	44
82	2
87	12
88	3
89	3
105	2
106	73
107	625
108	40
109	2
114	7
135	534
136	38
