Mass Spectrum: (7S,8R,S)-7-Hydroxymethyl-8-ethoxy-cis-bicyclo[4.3.0]-3-nonene
Formula: C12H20O2
CAS: 73741-90-9
Molecular weight: 196
m/z	intensity
26	30
27	290
29	330
30	30
31	260
38	10
39	260
40	50
41	420
42	30
43	100
44	50
45	70
46	20
47	60
50	20
51	80
52	40
53	140
54	690
55	190
56	20
57	210
58	20
59	60
62	10
63	20
64	10
65	110
66	240
67	240
68	30
69	30
70	60
71	30
72	50
73	30
75	10
77	290
78	510
79	990
80	180
81	110
82	30
83	130
84	10
85	50
86	10
89	10
91	999
92	270
93	140
94	60
95	90
96	260
97	30
98	20
99	10
103	40
104	550
105	140
106	80
107	50
108	30
109	40
110	10
111	80
112	10
115	50
116	30
117	550
118	80
119	500
120	100
121	60
122	20
123	10
124	50
125	10
128	10
129	20
130	10
131	150
132	420
133	60
134	40
135	20
137	20
142	20
143	10
149	20
150	240
151	30
152	10
153	10
163	10
165	10
167	10
168	5
169	5
178	20
179	5
195	5
196	30
197	5
