Mass Spectrum: 3,6,6-Trimethyl-cyclohex-2-enol
Formula: C9H16O
CAS: 73741-62-5
Molecular weight: 140
m/z	intensity
26	1
27	43
28	9
29	42
30	0
31	6
38	3
39	65
40	8
41	86
42	8
43	101
44	6
45	6
50	4
51	15
52	6
53	26
54	8
55	53
56	77
57	28
58	1
59	6
60	0
61	0
62	0
63	4
64	1
65	13
66	5
67	19
68	3
69	27
70	6
71	7
72	2
73	0
74	0
75	1
76	0
77	22
78	6
79	25
80	4
81	28
82	20
83	256
84	999
85	61
86	3
89	0
90	1
91	37
92	5
93	12
94	5
95	11
96	2
97	12
98	2
99	0
103	1
104	0
105	10
106	2
107	45
108	6
109	6
110	1
111	1
112	4
113	1
115	0
119	1
121	3
122	11
123	7
124	1
125	91
126	7
127	0
139	1
140	88
141	8
142	0
