Mass Spectrum: 3,4,4-Trimethyl-cyclohex-2-en-1-ol
Formula: C9H16O
CAS: 73741-63-6
Molecular weight: 140
m/z	intensity
39	250
41	471
43	525
55	433
57	137
58	17
59	23
61	12
63	18
65	58
66	43
67	128
68	22
69	999
70	89
71	31
77	94
78	22
79	147
80	20
81	141
82	59
83	339
84	254
85	167
86	12
91	148
92	23
93	42
94	22
95	48
96	286
97	120
98	13
105	37
107	199
108	25
109	47
110	17
111	13
112	32
121	13
122	37
123	33
124	23
125	183
126	17
139	36
140	302
141	30
