Mass Spectrum: 4H-Benz(f)inden-4-one, 1,2,3,3a,9,9a-hexahydro-
Formula: C13H14O
CAS: 73742-05-9
Molecular weight: 186
m/z	intensity
38	0
39	230
40	40
41	210
42	20
43	340
44	30
45	70
50	50
51	130
52	30
53	50
55	50
57	30
59	30
61	30
62	30
63	140
64	80
65	120
66	30
67	170
68	50
69	40
70	30
74	20
75	30
76	60
77	140
78	50
79	50
81	20
83	50
89	280
90	760
91	210
92	20
95	20
102	40
103	40
105	30
107	50
109	20
115	270
116	70
117	50
118	999
119	110
120	20
123	20
127	80
128	170
129	190
130	90
131	40
132	30
141	60
142	90
143	30
144	100
145	520
146	70
152	30
153	50
157	380
158	310
159	40
165	30
167	110
168	410
169	90
171	50
185	190
186	900
187	160
