Mass Spectrum: 1-Methoxy-6,6-dimethyl-cyclohex-2-ene
Formula: C9H16O
CAS: 73756-33-9
Molecular weight: 140
m/z	intensity
39	64
40	10
41	109
42	6
43	23
45	19
51	11
52	4
53	26
54	12
55	37
56	19
57	5
58	7
59	9
65	13
67	30
68	6
69	172
70	10
71	14
77	28
78	5
79	21
81	9
82	5
83	6
84	999
85	62
86	4
91	21
93	34
94	4
95	7
97	8
107	4
109	13
125	31
140	29
