Mass Spectrum: Cyclopentadienyl(methoxycarbonylvinylidene)dicarbonylmanganese
Formula: C11H9MnO4
CAS: 73766-80-0
Molecular weight: 260
m/z	intensity
55	999
56	49
65	159
66	219
80	279
89	49
91	19
93	69
120	869
121	69
144	29
145	39
148	29
161	19
172	129
173	14
174	20
176	5
184	9
204	459
205	49
212	9
228	39
229	19
232	9
260	69
261	9
