Mass Spectrum: 1-Undecanol, 11-mercapto-
Formula: C11H24OS
CAS: 73768-94-2
Molecular weight: 204
m/z	intensity
26	11
27	68
28	68
29	133
30	8
31	285
34	6
35	20
36	13
37	8
38	18
39	172
41	630
42	152
43	223
44	42
45	95
46	39
47	283
48	14
49	31
50	5
53	91
54	210
55	850
56	138
57	130
58	32
59	35
60	130
61	141
64	11
65	22
66	39
67	467
68	278
69	345
71	53
72	14
73	42
74	38
75	20
76	6
77	19
79	44
80	14
81	311
82	337
83	171
84	27
85	37
87	999
88	127
89	144
91	14
93	16
95	222
96	142
97	83
98	13
101	721
102	130
103	47
109	66
111	29
115	291
116	30
123	28
124	19
125	7
129	198
130	26
131	19
132	4
139	6
143	149
144	19
148	2
152	5
156	3
157	40
159	4
162	3
180	3
181	5
185	119
186	56
187	13
194	3
198	2
202	4
203	3
204	4
