Mass Spectrum: 7-exo-Phenylbicyclo[3.1.1]heptan-6-one
Formula: C13H14O
CAS: 73788-96-2
Molecular weight: 186
m/z	intensity
38	30
39	390
40	50
41	200
42	20
43	30
50	100
51	310
52	80
53	100
54	20
55	290
57	20
62	40
63	160
64	80
65	220
66	220
67	880
68	100
69	30
74	40
75	50
76	80
77	310
78	120
79	140
80	180
81	60
82	20
89	100
90	100
91	640
92	90
95	90
102	100
103	90
104	130
105	30
115	800
116	170
117	600
118	999
119	90
127	100
128	310
129	850
130	760
131	100
141	50
142	40
143	140
144	20
157	40
158	490
159	60
186	30
