Mass Spectrum: Dimethyl(2-octyl)amine
Formula: C10H23N
CAS: 7378-97-4
Molecular weight: 157
m/z	intensity
29	92
30	14
39	44
40	10
41	107
42	123
43	63
44	93
45	15
46	13
53	6
54	4
55	39
56	63
57	29
58	67
59	2
68	10
69	10
70	47
71	49
72	999
73	88
84	17
85	8
86	3
98	5
142	89
143	7
156	2
157	9
158	1
