Mass Spectrum: .alpha.-D-Glucopyranoside, methyl 2-(acetylamino)-2-deoxy-3,4,6-tri-O-methyl-
Formula: C12H23NO6
CAS: 7380-60-1
Molecular weight: 277
m/z	intensity
30	31
31	25
33	15
39	13
41	60
42	36
43	177
44	20
45	236
46	13
47	11
51	19
52	11
53	14
55	25
56	22
57	25
58	96
59	57
60	27
68	15
69	145
70	24
71	171
72	57
73	948
74	97
75	730
76	28
79	26
80	23
82	19
83	17
84	40
85	34
86	178
87	27
88	256
89	45
95	13
96	20
98	99
99	29
100	18
101	146
102	95
108	17
110	17
111	55
112	49
113	16
114	37
115	999
116	111
117	83
119	33
126	25
127	12
128	345
129	36
130	36
131	38
138	19
140	35
141	12
142	16
143	94
144	22
155	19
158	20
168	97
169	38
172	28
181	29
185	28
200	34
202	11
203	102
214	36
219	13
231	12
