Mass Spectrum: Methyl 3-O-methyl-.beta.-D-xylopyranoside
Formula: C7H14O5
CAS: 7381-10-4
Molecular weight: 178
m/z	intensity
27	49
28	67
29	139
31	169
41	89
43	145
45	159
57	79
58	39
59	239
61	119
69	99
71	153
73	119
74	999
75	419
86	79
87	39
100	45
101	19
103	9
105	9
114	137
115	11
116	13
117	11
146	9
147	31
