Mass Spectrum: Methyl-2-O-methyl.beta.l-arabinopyranoside
Formula: C7H14O5
CAS: 7381-11-5
Molecular weight: 178
m/z	intensity
45	253
55	22
57	56
58	26
59	184
60	138
61	153
69	30
71	42
73	92
74	999
85	176
87	628
88	184
100	15
101	15
103	7
114	17
115	13
129	12
130	15
147	19
148	2
