Mass Spectrum: Methyl 2-O-methyl-.beta.-D-xylopyranoside
Formula: C7H14O5
CAS: 7381-12-6
Molecular weight: 178
m/z	intensity
52	13
55	18
57	48
58	32
59	161
60	122
61	97
69	37
71	37
72	16
73	48
74	999
75	54
79	13
85	73
86	13
87	583
88	161
89	10
100	24
101	16
103	13
111	29
115	5
129	16
130	18
147	18
