Mass Spectrum: N,N'-(2-Hydroxytrimethylene)diphthalimide
Formula: C19H14N2O5
CAS: 73825-95-3
Molecular weight: 350
m/z	intensity
41	14
43	52
44	17
45	63
48	2
50	454
52	106
53	8
55	29
57	25
59	33
61	16
62	14
63	34
64	26
66	102
69	17
70	13
71	11
73	16
74	249
76	999
79	3
81	12
83	21
85	19
87	1
88	1
90	23
92	20
93	2
95	15
97	14
99	4
100	0
101	1
103	229
104	744
105	16
106	2
107	1
109	6
111	9
113	2
115	1
118	0
119	2
121	2
123	5
125	7
126	0
127	1
129	2
130	6
133	1
135	2
137	5
139	1
141	0
147	946
150	0
151	2
153	2
154	0
155	0
160	1
161	1
163	7
164	0
165	2
167	1
168	0
177	1
179	3
180	0
181	0
189	0
191	1
193	1
195	1
196	0
205	0
207	0
217	0
219	0
222	2
223	0
235	0
247	0
294	0
