Mass Spectrum: Bicyclo[3.2.2]nona-3,6-dien-2-one, 1-methoxy-
Formula: C10H12O2
CAS: 73830-82-7
Molecular weight: 164
m/z	intensity
26	61
27	257
28	71
29	27
31	9
37	9
38	47
39	400
40	69
41	214
42	25
43	72
44	0
45	114
46	6
49	0
50	71
51	199
52	108
53	111
54	17
55	280
56	16
57	19
58	8
59	0
61	3
62	22
63	78
64	34
65	245
66	70
67	177
68	16
69	9
71	13
74	11
75	11
76	12
77	403
78	232
79	259
80	55
81	26
82	6
83	3
89	15
90	11
91	244
92	34
93	111
94	74
95	261
96	40
97	7
98	0
102	9
103	108
104	66
105	123
106	22
107	44
108	999
109	366
110	420
111	30
115	26
116	0
117	1
118	1
119	13
120	15
121	931
122	115
123	71
124	7
131	71
132	24
133	113
134	16
135	115
136	111
137	16
145	22
146	29
147	15
148	1
149	71
150	9
163	71
164	352
165	43
166	0
