Mass Spectrum: Mannopyranoside, methyl 2-acetamido-2-deoxy-3,4,6-tri-O-methyl-, .beta.-D-
Formula: C12H23NO6
CAS: 7384-32-9
Molecular weight: 277
m/z	intensity
43	255
45	335
58	121
71	345
73	999
75	558
86	165
88	228
101	207
102	164
115	707
128	260
168	74
172	20
185	17
200	24
203	41
214	13
232	8
246	7
