Mass Spectrum: Silane, 9H-fluoren-9-yltrimethyl-
Formula: C16H18Si
CAS: 7385-10-6
Molecular weight: 238
m/z	intensity
26	0
27	0
28	4
29	4
31	2
39	3
41	0
42	0
43	17
44	9
45	100
46	5
47	2
50	1
51	1
52	0
53	4
54	0
55	2
56	0
57	3
58	4
59	17
60	1
61	0
62	1
63	6
64	0
65	1
66	0
67	0
70	1
71	1
72	6
73	999
74	88
75	39
76	2
77	1
78	0
81	0
82	0
83	0
86	1
87	3
88	1
89	4
90	0
91	0
96	0
98	0
99	0
100	0
101	0
102	0
103	0
104	0
110	0
111	0
112	0
113	2
114	0
115	9
116	1
119	0
126	1
127	0
128	0
129	0
137	2
138	1
139	12
140	1
141	0
142	0
150	0
151	1
152	2
153	1
154	0
155	1
161	0
162	2
163	22
164	18
165	66
166	13
167	3
168	0
169	1
176	2
177	2
178	10
179	5
180	2
181	3
182	1
189	1
190	0
191	3
192	2
193	7
194	1
195	30
196	6
197	1
203	0
204	1
205	3
206	1
207	4
208	1
209	1
210	0
217	1
219	1
220	0
221	1
222	1
223	27
224	6
225	1
237	0
238	106
239	27
240	6
241	0
