Mass Spectrum: 1H-2-Pyrrolecarboxylic acid, 3,4-di(2-methoxy-2-oxoethyl)-5-methyl-, benzyl ester
Formula: C19H21NO6
CAS: 73869-98-4
Molecular weight: 359
m/z	intensity
27	13
29	27
30	3
39	27
40	3
41	62
42	29
43	56
44	5
45	7
50	6
51	16
52	12
53	18
54	6
55	49
56	24
57	64
58	3
59	19
60	10
61	3
63	9
64	5
65	91
66	10
67	16
68	5
69	41
70	12
71	33
72	2
73	7
74	3
75	2
76	8
77	28
78	23
79	20
80	7
81	30
82	7
83	21
84	10
85	23
86	6
89	12
90	4
91	999
92	85
93	24
94	15
95	21
96	10
97	23
98	7
99	9
100	6
101	5
102	6
103	2
104	26
105	32
106	22
107	33
108	18
109	16
110	9
111	14
112	7
113	6
115	2
117	2
119	3
120	3
121	24
122	39
123	12
124	3
125	6
126	2
127	3
128	7
129	5
131	4
132	8
133	21
134	16
135	8
136	22
137	8
138	8
139	3
141	2
142	3
143	2
144	2
145	2
147	4
148	8
151	16
152	12
153	5
154	4
155	3
156	2
157	3
160	20
161	5
162	3
163	7
164	41
165	38
166	34
167	12
168	8
169	3
170	3
172	6
173	5
174	2
175	5
176	11
177	15
178	11
180	33
181	10
182	24
183	5
184	2
185	6
186	3
187	4
188	4
189	2
190	20
191	19
192	31
193	54
194	23
195	8
196	50
197	7
198	10
199	4
200	2
208	113
209	21
210	51
211	10
212	106
213	13
214	4
215	4
216	2
217	2
218	9
219	2
220	2
221	5
222	37
223	16
224	44
225	11
226	6
227	3
228	15
229	5
230	2
231	2
233	2
236	207
237	37
238	11
239	8
240	128
241	22
242	43
243	7
244	2
247	2
249	2
250	11
251	6
252	3
253	4
254	20
255	27
256	98
257	18
258	3
259	2
262	3
266	2
267	5
268	375
269	55
270	12
271	3
272	10
273	3
278	2
279	2
280	2
281	4
282	4
283	11
284	4
285	2
286	2
295	3
298	7
299	65
300	124
301	27
302	4
303	2
308	2
313	9
314	6
315	8
316	3
320	2
327	155
328	38
329	4
359	192
360	33
361	5
