Mass Spectrum: Cyclodecanol, acetate
Formula: C12H22O2
CAS: 7386-24-5
Molecular weight: 198
m/z	intensity
26	1
27	59
28	4
29	81
30	2
31	5
38	0
39	45
40	3
41	173
42	31
43	999
44	29
45	6
50	0
51	2
52	1
53	20
54	65
55	139
56	20
57	25
58	303
59	192
60	6
61	14
65	4
66	10
67	114
68	64
69	53
70	12
71	73
72	22
73	3
76	0
77	4
78	1
79	13
80	19
81	121
82	134
83	41
84	32
85	31
86	7
87	0
91	2
92	1
93	17
94	14
95	82
96	149
97	33
98	52
99	33
100	7
101	0
102	20
103	1
105	0
106	0
107	6
108	4
109	26
110	70
111	30
112	12
113	8
114	3
115	1
116	8
117	0
119	1
120	2
121	2
122	168
123	28
124	5
125	6
126	0
127	8
128	2
129	0
130	0
133	3
134	3
135	1
136	3
137	17
138	84
139	13
140	20
141	4
142	5
143	0
147	2
151	4
152	5
153	0
154	1
155	16
156	2
162	47
163	5
165	2
170	13
171	1
180	14
181	1
183	2
184	0
198	1
