Mass Spectrum: 5-Amino-7-hydroxytriazolo(1,5-a)-S-triazine
Formula: C4H4N6O
CAS: 7390-30-9
Molecular weight: 152
m/z	intensity
27	155
29	78
30	58
31	113
41	64
42	306
43	307
44	862
45	79
54	76
55	18
56	29
57	170
58	23
68	61
69	189
70	18
72	24
73	240
83	62
84	999
85	57
109	30
110	140
111	66
126	30
127	32
151	16
152	297
153	33
154	3
