Mass Spectrum: Benzeneethanamine, 4-bromo-
Formula: C8H10BrN
CAS: 73918-56-6
Molecular weight: 199
m/z	intensity
15	2
27	3
28	20
29	4
30	999
31	13
37	2
38	5
39	15
40	3
41	4
42	6
43	4
44	2
49	1
50	11
51	14
52	3
53	1
56	2
58	8
59	3
61	2
62	8
63	23
64	8
65	9
70	5
72	9
73	1
74	5
75	7
76	4
77	9
78	2
80	1
82	1
85	1
86	2
87	2
88	1
89	35
90	40
91	27
92	3
101	1
102	4
103	4
104	4
105	1
106	10
107	1
109	1
116	1
117	4
118	6
119	8
120	3
124	2
134	1
136	2
143	1
145	1
169	14
170	9
171	14
172	9
175	1
182	5
183	2
184	5
185	2
186	1
196	1
197	1
198	1
199	9
200	2
201	8
202	1
