Mass Spectrum: Hexanoic acid, 2-cyano-, ethyl ester
Formula: C9H15NO2
CAS: 7391-39-1
Molecular weight: 169
m/z	intensity
41	337
42	90
43	112
44	31
45	58
50	11
51	18
52	49
53	49
54	999
55	259
56	40
57	67
63	18
64	18
65	18
66	22
67	60
68	234
69	373
70	47
71	18
73	67
79	13
82	533
83	63
85	434
86	51
87	13
88	13
94	33
95	40
96	333
97	155
98	54
99	22
101	36
108	11
110	148
111	15
112	33
113	290
114	45
115	22
122	18
123	72
124	173
125	24
126	29
140	18
141	13
169	40
170	18
