Mass Spectrum: Cyclopentane, 1-methylene-3-(1-methylethylidene)-
Formula: C9H14
CAS: 73913-74-3
Molecular weight: 122
m/z	intensity
22	0
23	1
24	1
25	2
26	16
27	291
28	31
29	204
30	4
31	0
33	2
34	2
35	3
36	1
37	12
38	28
39	404
40	67
41	366
42	23
43	69
44	3
45	4
46	4
47	2
48	1
49	6
50	52
51	153
52	66
53	175
54	23
55	65
56	7
58	24
59	18
60	11
61	6
62	12
63	39
64	10
65	116
66	47
67	123
68	20
69	6
70	1
71	2
72	1
73	2
74	10
75	43
76	11
77	318
78	126
79	999
80	119
81	41
82	6
83	0
85	0
86	1
87	3
88	1
89	11
90	8
91	508
92	81
93	156
94	49
95	6
96	0
97	0
98	0
99	0
101	2
102	4
103	29
104	8
105	147
106	27
107	847
108	74
109	3
115	4
116	1
117	4
118	4
119	5
120	9
121	27
122	478
123	48
124	2
