Mass Spectrum: 1,1-Cyclobutanedicarbonitrile, 2,2-dimethoxy-4-(1-methylethyl)-
Formula: C11H16N2O2
CAS: 73913-91-4
Molecular weight: 208
m/z	intensity
26	87
27	298
28	174
29	247
30	14
32	5
33	1
36	1
37	6
38	19
39	156
40	43
41	203
42	496
43	999
44	28
45	75
46	2
47	18
48	0
49	3
50	32
51	100
52	94
53	56
54	36
55	151
56	13
57	103
58	178
59	57
60	2
62	6
63	17
64	43
65	44
66	143
67	63
68	19
69	21
70	24
71	4
72	5
73	9
74	22
75	14
76	51
77	63
78	198
79	106
80	52
81	13
82	8
83	3
84	1
85	2
86	0
87	10
88	623
89	38
90	9
91	32
92	112
93	184
94	20
95	5
96	6
97	8
98	1
99	1
100	0
101	5
102	3
103	9
104	10
105	285
106	25
107	21
108	8
109	2
111	8
112	1
113	1
114	0
115	1
116	1
117	3
118	10
119	119
120	70
121	9
122	3
123	9
124	2
125	0
126	1
127	2
128	2
129	3
130	0
131	1
132	0
133	9
134	9
135	7
136	7
137	7
138	181
139	41
140	2
142	1
143	29
144	5
145	4
146	2
147	4
148	1
149	4
150	8
151	4
152	3
155	2
160	1
161	6
162	5
163	6
165	102
166	10
167	1
168	0
175	1
176	1
177	31
178	4
179	3
180	1
181	6
182	1
187	0
193	4
194	1
207	1
208	1
