Mass Spectrum: Cyclooctanecarboxylic acid, 1-methyl-, methyl ester
Formula: C11H20O2
CAS: 7393-17-1
Molecular weight: 184
m/z	intensity
25	1
26	27
27	387
28	95
29	406
30	19
31	32
33	10
36	2
37	2
38	12
39	384
40	80
41	955
42	124
43	223
44	11
45	44
46	2
50	11
51	36
52	21
53	163
54	82
55	647
56	114
57	166
58	10
59	176
60	6
61	5
62	2
63	7
64	2
65	27
66	16
67	164
68	72
69	999
70	68
71	27
72	4
73	59
74	15
75	4
76	27
78	6
79	37
80	10
81	135
82	65
83	526
84	45
85	14
86	3
87	33
88	416
89	20
90	3
91	12
92	2
93	10
94	30
95	68
96	102
97	75
98	29
99	12
100	4
101	465
102	41
103	4
105	2
106	1
107	3
108	6
109	38
110	63
111	12
112	2
113	24
114	28
115	16
116	3
123	14
124	54
125	569
126	58
127	85
128	14
129	9
130	1
134	4
135	1
137	10
141	17
142	5
143	7
152	120
153	21
154	2
155	4
169	26
170	3
184	51
185	8
