Mass Spectrum: 1-(1-Hydroxyethyl),1-(hydroxymethyl)cyclopropane
Formula: C6H12O2
CAS: 73959-42-9
Molecular weight: 116
m/z	intensity
26	46
27	371
28	94
29	386
30	1
31	261
32	4
37	18
38	64
39	577
40	106
41	500
42	385
43	736
44	139
45	605
46	9
47	9
49	5
50	49
51	73
52	30
53	262
54	456
55	972
56	82
57	139
58	13
59	1
60	3
61	31
62	3
63	7
65	25
66	10
67	115
68	122
69	401
70	999
71	124
72	45
73	363
74	9
77	7
79	27
80	14
81	20
83	334
84	13
85	31
86	2
87	78
88	380
89	9
97	12
98	9
101	114
102	1
