Mass Spectrum: v-Triazole-4,5-dicarboxylic acid, 1-benzyl-
Formula: C11H9N3O4
CAS: 73953-89-6
Molecular weight: 247
m/z	intensity
41	51
42	6
43	6
44	18
45	78
47	6
48	2
49	30
50	51
51	149
52	69
53	31
54	10
55	9
56	4
57	3
58	1
59	3
60	1
61	5
62	25
63	101
64	10
65	399
66	23
67	7
68	16
69	27
70	8
71	3
72	4
73	3
74	15
75	22
76	16
77	91
78	55
79	29
80	8
81	6
82	2
83	1
84	21
85	2
86	24
87	6
88	1
89	82
90	4
91	999
92	86
93	4
94	0
96	7
97	6
98	5
99	2
100	1
101	12
102	22
103	30
104	123
105	64
106	12
107	7
108	1
109	1
111	0
112	1
113	0
114	1
115	1
116	11
117	14
118	8
119	3
120	3
121	2
124	1
125	0
127	13
128	123
129	207
130	167
131	18
132	4
133	0
135	0
136	1
139	1
140	0
141	0
143	1
144	6
145	16
146	20
147	5
148	1
149	2
151	0
155	47
156	131
157	24
158	4
159	0
161	0
163	2
165	8
166	0
167	0
170	0
172	24
173	105
174	149
175	29
176	3
183	2
184	0
185	0
186	1
187	0
188	1
190	0
191	0
201	23
202	65
203	12
204	1
217	0
218	18
219	33
220	13
221	1
230	2
231	0
232	0
247	3
248	0
