Mass Spectrum: tri-tert-Butyl borate
Formula: C12H27BO3
CAS: 7397-43-5
Molecular weight: 230
m/z	intensity
15	4
26	1
27	11
28	10
29	56
30	1
31	13
32	1
38	1
39	22
40	6
41	122
42	18
43	32
44	8
45	29
51	1
53	3
54	1
55	17
56	56
57	999
58	57
59	294
60	9
67	1
69	1
71	1
72	2
73	9
83	1
84	2
85	9
86	3
87	8
99	2
100	122
101	494
102	141
103	481
104	17
105	3
112	1
113	12
114	1
115	14
116	2
117	3
129	1
143	4
144	1
145	4
156	14
157	62
158	42
159	146
160	11
161	1
199	1
200	1
201	3
214	70
215	293
216	36
217	3
