Mass Spectrum: 1,2,3,4-butanetetrol, tetraacetate
Formula: C12H18O8
CAS: 73977-54-5
Molecular weight: 290
m/z	intensity
25	0
26	1
27	13
28	3
29	9
30	0
31	7
37	0
38	0
39	5
40	1
41	9
42	21
43	999
44	17
45	4
46	0
50	0
51	0
52	0
53	0
54	0
55	8
56	4
57	5
58	0
59	1
60	3
61	10
62	0
67	0
68	6
69	14
70	2
71	1
72	0
73	17
74	3
75	0
81	0
82	0
83	0
84	4
85	36
86	5
88	0
91	0
96	0
98	0
99	1
100	1
101	0
102	2
103	78
104	3
105	0
110	0
111	0
113	0
114	0
115	100
116	16
117	1
127	0
128	36
129	7
130	0
132	0
133	1
134	0
142	0
144	0
145	91
146	5
147	0
149	0
155	0
157	4
158	4
159	0
170	7
171	0
175	6
176	0
187	0
188	1
189	0
217	17
218	1
219	0
230	0
231	1
232	0
