Mass Spectrum: N-Acetyl-d-glucosamine, 1-deoxy-1-guanylthio
Formula: C15H23N3O8S
CAS: 73982-52-2
Molecular weight: 405
m/z	intensity
41	94
42	107
43	999
44	100
45	87
46	9
47	14
48	15
49	36
50	5
51	19
52	3
53	18
54	14
55	84
56	32
57	49
58	15
59	63
60	109
61	14
65	8
66	1
67	23
68	17
69	106
70	25
71	25
72	26
73	52
74	5
76	194
77	25
78	20
79	21
80	12
81	33
82	14
83	77
84	108
85	42
86	21
87	9
88	9
91	13
93	13
94	5
95	22
96	43
97	43
98	22
99	12
100	19
101	36
102	17
103	7
105	7
106	4
107	15
108	15
109	26
110	14
111	17
112	45
113	10
114	31
115	20
116	3
119	9
121	15
122	10
123	23
124	52
125	146
126	45
127	16
129	4
130	8
131	28
135	8
136	29
137	13
138	31
139	21
140	10
141	5
142	16
143	12
144	3
145	3
149	33
150	30
151	9
152	1
153	2
154	76
155	10
156	11
164	3
165	8
166	51
167	117
168	33
169	10
180	1
181	9
182	5
184	16
185	10
186	3
195	1
196	27
197	1
202	1
209	41
210	11
219	41
226	1
227	7
228	1
264	13
329	12
405	8
