Mass Spectrum: 4(3H)-Quinazolinone, 2-methylthio-3-phenyl-
Formula: C15H12N2OS
CAS: 73987-32-3
Molecular weight: 268
m/z	intensity
33	2
34	1
35	0
37	17
38	52
39	181
40	11
41	11
43	3
45	119
47	171
50	171
51	275
52	28
53	10
54	1
55	1
56	1
57	2
58	4
59	2
61	8
63	188
64	113
65	61
66	7
67	1
69	11
70	4
71	2
72	2
74	53
75	74
77	999
79	3
81	1
82	7
84	6
86	1
87	2
88	14
90	289
91	170
92	21
93	7
94	2
95	4
96	4
97	2
98	4
99	2
100	1
101	14
103	56
104	14
105	5
106	4
107	11
108	13
109	8
110	20
112	5
113	2
114	2
116	41
117	11
119	119
120	25
121	7
122	5
123	8
124	6
126	9
127	17
129	2
130	4
131	1
132	9
134	68
135	21
136	5
137	1
138	2
139	10
140	10
141	1
142	0
144	29
146	46
147	23
148	5
150	16
151	2
152	2
153	1
154	0
159	0
160	4
161	1
162	7
163	1
164	4
165	9
166	41
167	14
168	1
171	0
175	2
177	0
178	0
179	2
180	1
184	0
190	17
191	22
192	29
193	23
194	12
195	4
196	0
197	0
198	1
199	0
203	1
204	0
205	0
206	0
207	1
208	2
209	0
217	0
219	2
221	226
222	40
224	9
225	2
226	0
232	0
234	24
235	166
236	28
237	3
238	1
239	2
240	0
249	0
251	5
252	5
253	20
254	3
255	0
264	0
268	283
269	46
270	13
271	1
