Mass Spectrum: Cyclooctane-1,4-diol, cis
Formula: C8H16O2
CAS: 73982-04-4
Molecular weight: 144
m/z	intensity
37	2
39	260
40	69
41	736
42	263
43	428
44	229
45	56
47	93
49	1
50	8
51	22
52	12
53	119
54	720
55	837
56	236
57	811
58	622
59	54
60	10
62	25
65	32
67	999
68	222
69	521
70	566
71	454
72	40
73	18
74	2
75	0
77	49
78	5
79	371
80	707
81	157
82	971
83	658
84	452
85	106
86	37
87	78
88	4
89	1
91	36
93	443
94	40
95	94
97	445
98	302
99	21
100	21
101	7
102	3
103	0
104	0
105	2
107	28
108	101
109	42
111	74
112	9
113	5
114	1
115	9
116	1
117	0
118	3
124	1
125	18
126	44
127	16
128	4
129	3
131	0
133	3
140	3
141	3
142	3
143	5
144	3
145	5
