Mass Spectrum: 2-(3-Pentyl)pyridine
Formula: C10H15N
CAS: 7399-50-0
Molecular weight: 149
m/z	intensity
15	4
26	11
27	81
28	7
29	38
30	2
37	3
38	10
39	80
40	9
41	56
42	9
43	9
44	1
45	7
49	1
50	24
51	86
52	59
53	39
54	9
55	9
56	1
58	5
59	1
61	2
62	6
63	16
64	9
65	76
66	18
67	8
68	6
69	1
70	1
74	2
75	3
76	5
77	37
78	120
79	86
80	42
81	3
87	1
89	9
90	10
91	28
92	161
93	196
94	20
95	1
102	1
103	4
104	31
105	11
106	999
107	111
108	6
115	1
116	3
117	56
118	111
119	47
120	907
121	774
122	68
123	3
129	1
130	6
131	3
132	16
133	6
134	266
135	32
136	2
146	1
148	25
149	9
150	1
