Mass Spectrum: Ethambutol
Formula: C10H24N2O2
CAS: 74-55-5
Molecular weight: 204
m/z	intensity
27	20
29	30
30	680
31	40
41	50
42	60
43	60
44	200
49	10
54	10
55	90
56	60
57	50
58	60
70	30
71	60
72	290
73	10
74	10
84	50
85	30
86	30
88	10
97	40
102	999
103	50
115	50
116	130
117	10
173	70
