Mass Spectrum: Pyrrolidine, 1-(2-phenoxyethyl)-
Formula: C12H17NO
CAS: 74-54-4
Molecular weight: 191
m/z	intensity
35	5
36	21
37	4
38	14
39	37
40	13
41	47
42	77
43	10
44	3
50	6
51	27
52	3
53	8
54	17
55	53
56	31
57	5
62	3
63	7
64	5
65	35
66	8
67	8
68	9
69	24
70	8
74	2
77	66
78	10
79	3
80	3
81	3
82	21
84	999
85	55
86	1
91	14
92	4
94	13
95	0
96	23
97	11
98	7
107	2
108	0
119	2
120	4
121	4
190	11
191	56
192	7
193	0
