Mass Spectrum: Arginine
Formula: C6H14N4O2
CAS: 74-79-3
Molecular weight: 174
m/z	intensity
26	40
27	121
28	561
29	181
30	665
31	48
36	2
37	7
38	18
39	113
40	108
41	269
42	301
43	886
44	115
45	20
46	4
49	2
50	6
51	11
52	20
53	25
54	67
55	69
56	935
57	164
58	340
59	163
60	32
61	2
63	3
64	4
65	2
66	11
67	16
68	164
69	999
70	363
71	24
72	7
73	2
74	4
75	13
77	2
78	11
79	3
80	7
81	17
82	28
83	43
84	26
85	79
86	57
87	7
88	2
91	3
92	2
93	7
94	5
95	29
96	14
97	36
98	42
99	32
100	12
101	3
103	4
105	2
106	2
107	2
108	6
109	35
110	117
111	42
112	26
113	13
114	22
115	7
118	2
119	3
120	5
121	2
122	6
123	13
124	4
125	6
126	6
127	2
128	3
133	2
134	5
135	14
136	12
137	116
138	128
139	26
140	5
156	14
157	2
