Mass Spectrum: Acetylene
Formula: C2H2
CAS: 74-86-2
Molecular weight: 26
m/z	intensity
12	7
13	32
14	1
24	50
25	191
26	999
27	22
28	1
