Mass Spectrum: Methane
Formula: CH4
CAS: 74-82-8
Molecular weight: 16
m/z	intensity
12	38
13	106
14	204
15	887
16	999
17	16
