Mass Spectrum: Chloromethane
Formula: CH3Cl
CAS: 74-87-3
Molecular weight: 50
m/z	intensity
12	33
13	54
14	84
15	723
16	10
35	62
36	16
37	19
47	71
48	34
49	114
50	999
51	38
52	310
