Mass Spectrum: Ethane
Formula: C2H6
CAS: 74-84-0
Molecular weight: 30
m/z	intensity
2	2
12	4
13	10
14	30
15	44
16	1
24	5
25	35
26	232
27	332
28	999
29	215
30	262
31	5
