Mass Spectrum: Methylamine
Formula: CH5N
CAS: 74-89-5
Molecular weight: 31
m/z	intensity
13	2
14	4
15	40
16	4
17	8
18	11
26	9
27	82
28	538
29	123
30	999
31	655
32	9
