Mass Spectrum: Ethylene
Formula: C2H4
CAS: 74-85-1
Molecular weight: 28
m/z	intensity
2	1
12	5
13	9
14	21
15	3
24	23
25	78
26	529
27	623
28	999
29	23
30	1
