Mass Spectrum: Propyne
Formula: C3H4
CAS: 74-99-7
Molecular weight: 40
m/z	intensity
12	17
13	17
14	12
15	11
24	11
25	25
26	25
36	53
37	198
38	285
39	791
40	999
41	35
42	2
