Mass Spectrum: Methanethiol
Formula: CH4S
CAS: 74-93-1
Molecular weight: 48
m/z	intensity
12	12
13	21
14	38
15	96
32	39
33	51
34	11
35	3
44	74
45	474
46	115
47	999
48	899
49	61
50	41
