Mass Spectrum: Borane, compd. with dimethylamine (1:1)
Formula: C2H10BN
CAS: 74-94-2
Molecular weight: 59
m/z	intensity
10	1
11	5
12	9
13	26
14	4
15	31
18	37
24	1
25	7
26	31
27	112
28	197
29	41
30	90
31	2
37	6
38	21
39	50
40	169
41	135
42	395
43	40
44	459
45	176
46	11
50	2
51	7
52	8
53	22
54	87
55	114
56	278
57	350
58	999
59	33
