Mass Spectrum: Propane
Formula: C3H8
CAS: 74-98-6
Molecular weight: 44
m/z	intensity
12	3
13	6
14	22
15	72
16	4
19	7
20	8
21	1
24	1
25	5
26	91
27	419
28	587
29	999
30	22
36	3
37	30
38	53
39	189
40	28
41	134
42	60
43	231
44	274
45	9
