Mass Spectrum: 1,3-Bis(p-ethoxyphenyl)urea
Formula: C17H20N2O3
CAS: 740-80-7
Molecular weight: 300
m/z	intensity
15	2
16	1
25	1
26	19
27	65
28	50
29	58
30	3
32	1
37	5
38	11
39	39
40	5
41	9
42	8
43	21
44	6
46	3
47	5
49	1
50	15
51	43
52	115
53	72
54	20
55	9
56	2
57	2
58	1
60	1
61	10
62	9
63	31
64	22
65	46
66	9
67	3
68	6
69	2
70	1
71	2
73	1
74	9
75	4
76	7
77	18
78	71
79	78
80	174
81	75
82	13
83	2
84	1
85	1
87	1
88	1
89	3
90	22
91	14
92	19
93	9
94	8
95	1
97	1
104	1
105	2
106	33
107	245
108	999
109	696
110	49
111	4
117	1
118	7
119	12
120	6
121	2
122	6
123	1
132	1
133	3
134	34
135	782
136	84
137	981
138	94
139	6
144	1
146	1
147	3
148	5
149	3
150	7
151	1
162	8
163	502
164	52
165	5
177	2
180	43
181	5
192	1
225	2
226	1
245	5
253	6
254	1
260	1
271	2
282	7
283	1
299	5
300	401
301	78
302	9
303	1
