Mass Spectrum: 4-Hydroxy-5-[2,2-diethoxyethyl]-6-aminopyrimidine
Formula: C10H17N3O3
CAS: 7400-06-8
Molecular weight: 227
m/z	intensity
42	90
43	215
45	281
47	444
49	39
51	14
52	87
53	76
54	130
55	71
57	88
58	2
60	4
61	1
63	1
64	4
65	4
66	7
67	2
68	39
69	24
70	35
71	59
72	2
73	5
75	668
76	19
77	4
79	5
80	76
81	5
82	40
84	26
86	14
88	3
89	1
91	5
93	10
94	8
96	62
97	135
98	20
99	4
100	0
103	999
104	52
105	5
107	8
108	2
109	16
110	12
111	3
112	1
118	3
119	1
122	2
124	325
125	93
126	7
127	5
134	0
135	2
136	61
138	20
139	3
140	1
150	0
151	0
152	31
154	89
155	5
168	0
170	0
181	5
182	191
183	15
184	1
198	9
226	0
227	36
228	4
229	0
