Mass Spectrum: Hydrazinecarboxylic acid, butylidene-, ethyl ester
Formula: C7H14N2O2
CAS: 7400-28-4
Molecular weight: 158
m/z	intensity
41	999
42	180
43	270
44	190
45	360
46	120
50	30
51	30
52	30
53	30
54	50
55	200
56	150
57	160
58	220
59	20
61	30
62	350
63	10
64	10
68	50
69	80
70	360
71	140
83	20
84	610
85	80
87	50
89	210
90	20
97	120
98	10
99	40
102	50
110	10
111	20
112	20
113	50
115	60
129	10
130	380
131	30
143	70
144	10
158	140
159	10
