Mass Spectrum: 4-Hexenoic acid, 2-acetyl-5-methyl-2-(3-methyl-2-butenyl)-, ethyl ester
Formula: C16H26O3
CAS: 74016-17-4
Molecular weight: 266
m/z	intensity
26	3
27	45
28	12
29	84
30	3
31	4
39	49
40	10
41	302
42	19
43	999
44	30
45	11
50	3
51	12
52	6
53	57
54	7
55	64
56	22
57	19
58	3
59	9
60	1
61	4
62	1
63	4
64	2
65	24
66	10
67	47
68	12
69	335
70	20
71	10
72	5
73	3
74	2
75	2
76	2
77	59
78	10
79	74
80	26
81	91
82	12
83	20
84	5
85	12
86	13
87	3
91	48
92	9
93	127
94	43
95	90
96	12
97	39
98	7
99	8
100	2
101	4
102	3
103	5
104	6
105	29
106	7
107	64
108	14
109	116
110	48
111	41
112	5
113	6
114	2
115	14
116	5
117	7
118	3
119	20
120	5
121	64
122	21
123	44
124	13
125	39
126	6
127	14
128	4
129	4
130	6
131	10
132	3
133	27
134	7
135	36
136	10
137	73
138	18
139	45
140	9
141	9
142	3
143	26
144	5
145	4
146	2
147	5
148	3
149	98
150	15
151	669
152	100
153	216
154	21
155	14
156	5
157	1
158	1
159	11
160	3
161	4
162	1
163	10
164	4
165	5
166	1
167	78
168	14
169	15
170	3
171	2
172	1
173	2
174	1
175	8
176	2
177	112
178	17
179	6
180	3
181	47
182	6
183	10
184	2
191	3
192	13
193	99
194	15
195	10
196	2
197	633
198	91
199	11
205	12
206	2
207	2
208	1
209	4
220	3
221	28
222	5
223	81
224	20
225	3
248	5
249	1
266	7
267	1
