Mass Spectrum: 2,4-Dicyanopyrrole
Formula: C6H3N3
CAS: 74023-87-3
Molecular weight: 117
m/z	intensity
41	9
42	1
43	3
44	5
45	2
47	0
48	3
49	7
50	12
51	38
52	36
53	36
54	1
55	3
56	1
57	1
58	16
60	1
62	111
63	139
64	50
65	30
66	95
67	3
69	1
70	1
71	0
73	0
74	4
75	6
76	4
77	9
78	3
79	1
81	0
83	1
84	1
85	0
86	0
88	29
89	62
90	104
91	17
92	1
116	2
117	999
118	77
119	2
