Mass Spectrum: 2-Pentanone, 4-methyl-4-phenyl-
Formula: C12H16O
CAS: 7403-42-1
Molecular weight: 176
m/z	intensity
39	70
41	140
42	10
43	880
44	20
50	20
51	60
52	20
53	10
55	30
63	20
65	40
77	80
78	30
79	60
89	10
91	480
92	40
103	50
105	20
115	30
117	50
118	250
119	999
120	100
133	20
161	20
176	210
177	30
