Mass Spectrum: 2-Bromotetradecane
Formula: C14H29Br
CAS: 74036-95-6
Molecular weight: 276
m/z	intensity
15	1
26	2
27	71
29	155
30	3
38	1
39	84
40	17
41	489
42	124
43	620
44	20
50	1
51	4
52	3
53	39
54	38
55	454
56	159
57	999
58	44
65	6
66	3
67	44
68	22
69	233
70	86
71	707
72	38
77	3
79	7
80	1
81	15
82	15
83	103
84	34
85	524
86	34
91	1
93	1
95	5
96	5
97	59
98	14
99	171
100	13
107	8
109	9
110	2
111	20
112	6
113	122
114	10
120	1
121	5
122	1
123	4
124	1
125	6
126	3
127	94
128	9
135	1
139	1
140	1
141	60
142	6
149	8
151	7
155	23
156	2
196	1
197	56
198	8
