Mass Spectrum: Sydnone, 3,3'-(1,2-ethanediyl)bis-
Formula: C6H6N4O4
CAS: 7403-61-4
Molecular weight: 198
m/z	intensity
54	440
55	150
56	50
57	50
82	460
83	40
86	150
87	10
100	110
101	10
112	999
113	70
114	20
117	80
