Mass Spectrum: Benzenamine, N-benzyl-2,4-dinitro-
Formula: C13H11N3O4
CAS: 7403-38-5
Molecular weight: 273
m/z	intensity
41	19
42	1
43	9
44	3
45	0
46	3
48	0
49	4
50	24
51	52
52	22
53	6
54	1
55	5
56	2
57	7
61	2
62	17
63	59
64	25
65	146
66	9
67	2
68	0
69	5
70	4
71	4
73	1
74	15
75	31
76	41
77	69
78	27
79	11
80	3
81	2
82	1
83	3
84	10
85	2
86	3
87	2
88	4
89	43
90	14
91	999
92	84
93	2
94	2
95	2
96	0
97	2
98	1
99	2
100	0
101	2
102	7
103	9
104	42
105	412
106	34
107	6
108	0
109	1
111	2
113	4
114	2
115	5
116	2
117	1
118	1
119	4
120	2
121	0
122	1
123	1
125	2
126	6
127	7
128	5
129	1
130	0
134	0
137	5
138	0
139	5
140	4
141	2
143	0
147	2
149	6
150	9
151	18
152	31
153	14
154	6
155	1
163	2
164	3
165	4
166	14
167	16
168	5
169	1
176	0
177	4
178	24
179	55
180	49
181	19
182	3
183	0
191	0
192	1
193	4
194	16
195	4
196	6
197	2
205	0
208	3
209	22
210	5
211	0
224	0
225	42
226	24
227	4
238	1
239	9
240	5
241	0
243	1
254	0
255	42
256	36
257	10
258	1
260	0
272	7
273	209
274	32
275	4
276	0
