Mass Spectrum: 1,1-Divinyl-1-silacyclobutane
Formula: C7H12Si
CAS: 74045-42-4
Molecular weight: 124
m/z	intensity
53	100
54	35
55	385
56	40
57	70
65	30
66	70
67	120
68	40
69	160
70	35
80	20
81	95
82	58
83	100
95	40
96	999
97	120
98	40
109	20
124	25
125	3
126	1
