Mass Spectrum: 1,1,6,6-Tetramethylspiro[4.4]nonane
Formula: C13H24
CAS: 74054-92-5
Molecular weight: 180
m/z	intensity
27	67
28	36
29	100
30	2
39	103
40	26
41	391
42	37
43	99
44	19
50	3
51	20
52	11
53	98
54	49
55	325
56	101
57	62
58	3
63	5
64	5
65	35
66	23
67	207
68	88
69	446
70	62
71	17
72	7
76	3
77	65
78	15
79	89
80	30
81	433
82	238
83	147
84	20
85	8
91	52
92	9
93	48
94	38
95	999
96	439
97	131
98	11
104	16
105	4
107	28
108	21
109	932
110	199
111	59
112	10
115	6
119	4
121	15
122	9
123	114
124	76
125	13
136	4
137	125
138	24
139	5
141	15
142	3
152	8
153	6
154	2
155	3
156	7
165	522
166	85
167	6
180	94
181	14
