Mass Spectrum: 1,3,3,4-Tetramethyl-2-oxabicyclo[2.2.0]hexane
Formula: C9H16O
CAS: 74055-05-3
Molecular weight: 140
m/z	intensity
26	15
27	198
28	52
29	156
30	5
31	15
37	5
38	16
39	326
40	61
41	661
42	76
43	999
44	31
45	22
50	21
51	55
52	26
53	165
54	124
55	927
56	101
57	74
58	102
59	33
60	3
62	4
63	14
64	3
65	46
66	22
67	578
68	51
69	385
70	94
71	52
72	10
74	2
77	40
78	8
79	82
80	13
81	203
82	477
83	333
84	30
85	69
86	6
90	2
91	44
92	8
93	21
94	14
95	27
96	33
97	469
98	57
99	137
100	9
105	15
106	3
107	362
108	40
109	12
110	7
111	14
112	109
113	8
121	7
122	236
123	40
125	404
126	39
140	44
141	4
