Mass Spectrum: Acetamide, 2-benzylamino-N-phenyl-
Formula: C15H16N2O
CAS: 74084-45-0
Molecular weight: 240
m/z	intensity
37	6
38	30
39	51
40	16
41	15
42	18
43	14
44	8
45	1
50	14
51	41
52	11
53	2
54	1
55	1
60	0
61	1
62	6
63	29
64	20
65	139
66	21
67	2
69	0
70	2
73	0
74	3
75	3
76	6
77	77
78	15
79	14
80	1
82	0
87	1
89	28
91	999
92	122
93	104
94	10
95	1
103	1
104	9
106	509
107	45
108	2
109	0
115	0
116	1
117	15
118	55
119	40
120	567
121	48
122	2
127	0
128	0
131	0
132	1
133	1
134	18
135	31
136	4
137	2
141	0
145	2
146	1
147	0
148	0
149	1
150	1
151	0
152	1
155	0
156	0
161	0
163	2
164	0
165	2
166	0
167	1
171	1
179	0
180	2
181	1
182	3
194	0
195	0
239	3
240	76
241	13
242	1
