Mass Spectrum: 1H-1,2,4-Triazole, 3-ethyl-
Formula: C4H7N3
CAS: 7411-16-7
Molecular weight: 97
m/z	intensity
26	20
27	40
28	100
29	40
39	70
40	20
41	90
42	190
43	40
54	60
55	100
56	280
57	50
69	50
82	60
96	999
97	520
98	30
