Mass Spectrum: 1H-1,2,4-Triazole, 3-(methylthio)-
Formula: C3H5N3S
CAS: 7411-18-9
Molecular weight: 115
m/z	intensity
42	290
43	160
44	100
45	170
46	90
47	80
58	100
59	90
70	750
71	110
73	110
74	650
76	100
82	420
83	80
88	130
114	700
115	999
