Mass Spectrum: n-Butyl trifluoromethyl sulfide
Formula: C5H9F3S
CAS: 7412-26-2
Molecular weight: 158
m/z	intensity
45	232
46	127
47	311
55	190
56	999
57	467
58	109
59	118
60	84
69	518
70	35
71	50
72	18
73	13
82	35
83	27
85	11
89	252
115	345
116	15
117	17
129	135
139	87
157	19
158	439
159	131
160	27
