Mass Spectrum: 5-[2-Thienyl]hydantoin
Formula: C7H6N2O2S
CAS: 74126-04-8
Molecular weight: 182
m/z	intensity
41	3
42	115
43	439
44	362
45	656
47	173
48	5
49	63
50	16
51	32
52	218
53	45
54	21
55	32
57	239
58	244
59	35
60	22
61	27
62	43
63	67
64	28
65	16
66	32
67	12
69	246
70	288
71	37
72	15
73	3
74	2
75	11
76	18
77	8
78	19
80	16
81	69
82	75
83	122
84	41
86	19
88	30
91	6
92	4
93	16
95	75
96	75
97	17
98	6
99	9
100	2
106	3
107	2
109	49
110	999
111	851
112	104
113	43
114	3
121	4
124	3
126	2
127	2
137	3
138	25
139	126
140	10
141	7
149	2
153	27
154	63
155	7
156	3
180	10
181	8
182	353
183	37
184	20
