Mass Spectrum: Pyrimethamine, tetraacetate
Formula: C20H21ClN4O4
CAS: 74124-13-3
Molecular weight: 416
m/z	intensity
43	999
44	21
45	5
47	9
48	4
52	1
53	3
54	6
55	5
56	15
57	3
60	6
62	1
63	4
65	1
66	1
67	3
68	8
69	14
70	3
73	2
75	4
76	2
77	5
78	3
81	7
82	1
87	1
88	8
89	6
94	1
97	1
99	2
100	2
101	5
102	4
103	3
104	1
105	1
106	1
111	6
112	1
113	4
114	16
115	12
116	6
117	3
123	15
124	2
125	10
126	6
127	29
128	27
129	10
130	5
131	2
136	3
137	8
138	8
139	12
140	17
141	8
142	8
143	5
144	2
148	2
149	16
150	14
151	16
152	12
153	14
154	28
155	21
156	7
157	4
158	2
161	3
162	6
163	26
164	8
165	16
166	8
167	2
168	11
169	9
170	7
171	3
174	6
175	8
176	8
177	50
178	12
179	21
180	9
181	7
182	3
183	2
184	3
185	2
188	6
189	6
190	13
191	9
192	9
193	6
194	10
195	7
196	7
197	6
198	4
199	13
201	10
203	25
204	5
205	13
206	7
207	6
208	3
209	3
210	1
211	13
212	15
213	8
214	2
215	4
216	3
217	5
218	6
219	12
220	6
221	9
222	6
223	4
224	4
225	3
228	2
230	16
231	10
232	23
233	6
234	57
235	8
236	16
237	6
238	5
239	8
240	8
241	2
244	4
245	12
246	11
247	121
248	39
249	42
250	12
251	1
254	3
255	4
256	2
258	13
259	17
260	9
261	13
262	3
263	4
264	2
271	4
272	3
273	51
274	3
275	283
276	55
277	85
278	18
279	2
282	3
283	1
285	2
287	6
288	6
289	105
290	47
291	40
292	15
293	2
296	2
297	4
299	75
300	12
301	51
302	8
303	16
304	3
305	3
313	10
314	10
315	16
317	588
318	98
319	198
320	33
321	3
329	1
331	239
332	298
333	125
334	99
335	16
336	1
345	3
346	3
347	2
359	79
360	16
361	28
362	5
373	43
374	147
375	44
376	51
377	10
378	1
415	2
416	87
417	20
418	30
419	7
