Mass Spectrum: 1,2:5,6-Di-O-ethylborandiyl-D-glucohexodialdose
Formula: C10H16B2O6
CAS: 74143-57-0
Molecular weight: 254
m/z	intensity
23	0
24	0
25	2
26	21
27	90
28	139
29	401
30	11
31	16
32	1
33	0
35	0
36	0
37	4
38	8
39	91
40	23
41	72
42	64
43	104
44	24
45	45
46	0
47	0
48	1
49	4
50	13
51	13
52	11
53	33
54	30
55	103
56	53
57	169
58	7
59	5
60	3
61	1
62	4
63	2
64	1
65	2
66	4
67	14
68	63
69	135
70	400
71	59
72	9
73	6
74	1
75	1
76	1
77	2
78	1
79	6
80	5
81	21
82	29
83	121
84	19
85	26
86	13
87	4
88	1
89	1
90	0
91	1
92	0
93	1
94	3
95	14
96	62
97	250
98	999
99	430
100	25
101	6
102	0
103	0
104	0
106	0
107	2
108	6
109	12
110	141
111	521
112	39
113	17
114	5
115	1
116	0
117	0
118	0
119	0
120	0
121	0
122	3
123	40
124	137
125	44
126	64
127	229
128	38
129	10
130	0
134	0
135	1
136	1
137	3
138	8
139	30
140	28
141	59
142	4
143	1
148	0
149	2
150	4
151	19
152	39
153	28
154	38
155	8
156	9
157	7
158	0
162	0
163	0
164	1
165	1
166	4
167	4
168	4
169	16
170	3
171	0
172	0
177	0
178	6
179	12
180	2
181	1
182	2
183	3
190	0
192	0
193	0
194	1
195	3
196	7
197	12
198	2
199	0
203	0
205	0
206	12
207	78
208	145
209	16
210	5
211	6
212	0
218	1
223	0
224	5
225	11
226	1
