Mass Spectrum: 1-Amino-indan-2-ol
Formula: C9H11NO
CAS: 74165-73-4
Molecular weight: 149
m/z	intensity
15	16
18	9
26	11
27	54
28	205
29	48
30	85
31	14
37	16
38	41
39	136
40	19
41	41
42	26
43	26
44	13
46	10
50	73
51	188
52	61
53	31
54	17
55	17
58	14
59	19
61	12
62	44
63	116
64	36
65	145
66	25
67	9
73	12
74	42
75	40
76	57
77	354
78	219
79	166
80	20
85	9
86	10
89	84
90	78
91	264
92	80
93	51
101	18
102	85
103	512
104	999
105	179
106	668
107	48
115	83
116	38
117	147
118	125
119	47
120	38
121	86
128	17
130	433
131	500
132	576
133	75
146	11
148	97
149	149
150	14
