Mass Spectrum: Furan, tetrahydro-2,2-dimethyl-5-(1-methyl-1-propenyl)-
Formula: C10H18O
CAS: 7416-35-5
Molecular weight: 154
m/z	intensity
26	10
27	212
28	34
29	235
30	6
31	14
37	2
38	4
39	184
40	34
41	444
42	153
43	999
44	23
45	28
46	1
47	3
48	1
50	7
51	25
52	14
53	119
54	50
55	683
56	353
57	127
58	9
59	35
60	1
61	1
62	4
63	7
64	2
65	29
66	13
67	112
68	25
69	488
70	322
71	37
72	2
73	2
77	39
78	7
79	109
80	21
81	750
82	50
83	171
84	62
85	394
86	23
91	37
92	16
93	99
94	10
95	81
96	75
97	93
98	40
99	21
100	1
103	3
104	1
105	18
106	5
107	18
108	5
109	11
110	2
111	25
112	2
113	1
115	1
117	2
119	15
120	2
121	111
122	11
123	5
124	1
125	25
126	9
127	1
134	2
135	2
136	10
137	8
138	5
139	735
140	70
141	5
152	3
153	18
154	423
155	42
156	2
