Mass Spectrum: 4-Aminophenyl chlorodifluoromethyl sulfone
Formula: C7H6ClF2NO2S
CAS: 74171-46-3
Molecular weight: 241
m/z	intensity
39	220
41	70
52	70
63	110
64	90
65	780
80	40
85	70
91	80
92	999
93	70
108	560
140	80
142	40
156	900
157	70
158	60
241	160
243	60
