Mass Spectrum: 3-Bromo-7-nitroindazole
Formula: C7H4BrN3O2
CAS: 74209-34-0
Molecular weight: 241
m/z	intensity
30	71
37	25
38	56
50	42
51	35
52	94
61	80
62	145
63	67
64	53
65	76
75	46
76	80
77	127
86	70
87	164
88	116
89	99
103	10
104	138
105	74
115	19
116	999
117	47
132	92
211	155
213	176
241	419
243	426
