Mass Spectrum: Hydrazine, 1-methyl-1-(2-propynyl)-
Formula: C4H8N2
CAS: 7422-82-4
Molecular weight: 84
m/z	intensity
26	15
27	40
28	154
29	74
30	35
31	9
37	39
38	69
39	227
40	35
41	50
42	95
43	118
44	67
45	999
46	31
51	9
52	18
53	13
54	40
55	25
56	15
57	5
59	14
66	37
67	10
68	9
69	4
83	65
84	345
85	31
