Mass Spectrum: Acetaldehyde, propylhydrazone
Formula: C5H12N2
CAS: 7422-88-0
Molecular weight: 100
m/z	intensity
28	15
29	67
30	670
31	18
39	35
40	16
41	93
42	268
43	78
44	37
54	6
55	9
56	25
57	37
58	40
69	13
71	999
72	50
85	25
99	8
100	289
101	45
