Mass Spectrum: Acetaldehyde, (1-methylethyl)hydrazone
Formula: C5H12N2
CAS: 7422-89-1
Molecular weight: 100
m/z	intensity
28	228
29	86
30	119
31	37
39	61
40	30
41	193
42	281
43	228
44	738
45	30
55	14
56	42
57	105
58	124
59	16
68	10
69	11
85	999
86	61
99	21
100	385
101	47
