Mass Spectrum: 1,4,10-Trioxa-7,13-diazacyclopentadecane-2,6,14-trione
Formula: C10H16N2O6
CAS: 74229-36-0
Molecular weight: 260
m/z	intensity
51	9
53	7
54	49
55	141
56	386
57	338
58	112
59	67
60	83
61	48
62	12
65	12
67	33
68	28
69	124
70	386
71	290
72	580
73	125
74	177
75	19
76	40
77	11
79	11
80	7
81	62
82	32
83	483
84	88
85	564
86	174
87	140
88	386
89	41
90	9
91	32
92	79
93	11
94	7
95	41
96	16
97	57
98	19
99	24
100	548
101	967
102	999
103	185
104	35
105	12
107	12
109	24
110	14
111	32
112	12
113	59
114	257
115	257
116	153
117	132
118	86
119	59
120	91
121	11
122	7
123	17
124	9
125	19
126	9
127	32
128	28
129	61
130	127
131	93
132	175
133	19
134	199
135	12
137	11
138	7
139	11
141	19
142	119
143	209
144	185
145	77
146	43
147	17
148	16
149	59
150	7
151	7
158	106
159	116
160	451
161	96
162	32
163	7
166	1
167	16
171	16
172	62
173	62
174	91
175	9
176	43
178	386
179	22
180	7
187	48
188	69
189	69
190	227
191	38
199	12
200	12
201	7
202	54
203	36
204	64
205	11
215	7
216	53
217	854
218	82
219	14
229	7
230	140
231	20
232	7
233	6
260	14
261	1
