Mass Spectrum: 1,7-Dioxa-10-thia-4,13-diazacyclopentadeca-5,9,12-trione
Formula: C10H16N2O5S
CAS: 74229-40-6
Molecular weight: 276
m/z	intensity
55	444
56	455
57	805
58	127
59	122
60	211
61	138
62	49
67	138
68	61
69	377
70	288
71	449
72	555
73	211
74	238
75	72
76	38
77	55
79	72
81	172
82	116
83	233
84	94
85	588
86	999
87	627
88	338
89	111
90	277
91	99
92	38
93	55
94	38
95	166
96	77
97	222
98	55
99	83
100	161
101	222
102	372
103	249
104	105
105	72
107	49
109	105
110	49
111	133
112	49
113	83
114	316
115	338
116	266
117	449
118	627
119	211
120	44
121	38
122	33
123	72
124	38
125	83
127	38
128	44
129	83
130	172
131	83
132	211
133	72
134	38
135	127
136	38
137	44
139	38
141	49
142	249
143	88
144	111
145	44
146	38
147	177
148	55
149	305
150	38
151	33
158	49
159	38
160	161
161	111
162	33
167	94
172	83
174	38
175	99
176	38
201	38
206	99
217	33
218	44
219	38
220	33
233	227
234	33
235	33
276	216
277	33
