Mass Spectrum: 1,4,10,13-Tetraoxa-7,16-diazacyclooctadecane-2,6,17-trione
Formula: C12H20N2O7
CAS: 74229-38-2
Molecular weight: 304
m/z	intensity
55	83
56	341
57	153
58	138
59	95
60	73
69	101
70	584
71	406
72	424
73	153
74	98
83	892
84	101
85	430
86	243
87	147
88	301
89	52
99	64
100	615
101	999
102	738
103	107
113	89
114	359
115	138
116	243
117	129
118	123
127	79
128	52
129	76
130	150
131	83
132	144
134	276
142	243
143	184
144	286
145	98
146	107
158	227
159	86
160	723
161	135
162	79
172	76
173	76
174	150
176	156
178	83
188	138
202	43
203	70
204	61
205	79
216	58
217	393
218	67
222	83
229	24
231	15
232	27
233	52
234	21
243	73
246	39
247	15
259	15
260	15
261	138
262	21
274	15
304	12
305	27
