Mass Spectrum: 3-Pyridinecarboxaldehyde, O-acetyloxime, (E)-
Formula: C8H8N2O2
CAS: 74231-55-3
Molecular weight: 164
m/z	intensity
40	240
41	150
42	130
43	130
44	999
45	30
49	20
50	130
51	80
52	50
53	40
54	10
55	80
56	60
57	50
58	40
60	10
63	10
64	40
65	20
67	60
68	20
69	40
70	30
71	20
75	60
76	130
77	510
78	80
79	50
80	10
81	30
82	10
83	20
84	10
85	10
91	60
92	10
93	20
95	20
96	10
97	10
103	40
104	780
105	90
106	50
107	20
117	10
119	10
121	10
122	30
128	10
129	10
130	10
131	10
141	10
