Mass Spectrum: 2-Pyridinecarboxaldehyde, O-acetyloxime, (E)-
Formula: C8H8N2O2
CAS: 74231-53-1
Molecular weight: 164
m/z	intensity
40	100
41	30
42	70
43	150
44	370
45	50
49	20
50	110
51	120
52	100
53	40
58	10
60	60
64	40
65	30
74	90
75	50
76	120
77	520
78	120
79	170
92	60
103	40
104	999
105	110
121	40
122	350
123	30
149	30
