Mass Spectrum: 4-Pyridinecarboxaldehyde, O-acetyloxime, (E)-
Formula: C8H8N2O2
CAS: 74231-54-2
Molecular weight: 164
m/z	intensity
40	180
41	100
42	360
43	450
44	820
45	130
48	40
49	120
50	550
51	360
52	180
53	110
58	20
60	120
61	20
62	40
63	60
64	360
65	50
66	10
74	40
75	250
76	360
77	950
78	260
79	100
92	30
103	120
104	999
105	270
106	130
107	20
121	40
122	320
123	30
