Mass Spectrum: Cyclopentanecarboxylic acid, 3-methyl-2-oxo-, ethyl ester
Formula: C9H14O3
CAS: 7424-85-3
Molecular weight: 170
m/z	intensity
26	84
27	485
28	136
29	583
30	19
31	278
32	4
37	1
38	6
39	173
40	73
41	693
42	533
43	159
44	129
45	184
46	50
47	5
48	1
49	1
50	4
51	15
52	12
53	102
54	185
55	973
56	229
57	50
58	12
59	37
60	64
61	22
62	1
63	4
64	2
65	25
66	32
67	133
68	312
69	679
70	116
71	73
72	25
73	999
74	133
75	18
76	2
77	23
78	16
79	30
80	22
81	161
82	48
83	59
84	8
85	50
86	26
87	32
88	74
89	5
90	2
91	73
92	8
93	5
94	10
95	124
96	943
97	394
98	121
99	144
100	19
101	292
102	246
103	18
104	3
105	22
106	46
107	8
108	3
109	26
110	7
111	4
113	91
114	97
115	20
116	3
119	1
120	1
121	1
122	5
123	58
124	932
125	552
126	41
127	56
128	16
129	2
141	26
142	439
143	42
144	3
152	4
155	2
168	2
169	4
170	449
171	47
172	5
