Mass Spectrum: Benzonitrile, 4-(5-butyl-1,3-dioxan-2-yl)-
Formula: C15H19NO2
CAS: 74240-65-6
Molecular weight: 245
m/z	intensity
15	15
18	27
27	338
28	125
29	491
30	20
31	61
39	285
41	825
42	399
43	372
44	24
50	47
51	73
52	26
53	72
54	120
55	999
56	965
57	166
58	19
63	19
67	90
68	64
69	360
70	131
71	30
75	71
76	89
77	83
81	679
82	68
83	107
84	233
85	52
88	21
95	21
96	81
97	278
98	31
102	284
103	119
104	325
105	29
114	28
115	33
116	32
117	21
130	771
131	102
132	522
133	142
143	91
144	36
148	31
244	310
245	343
246	53
