Mass Spectrum: Benzonitrile, 4-(5-propyl-1,3-dioxan-2-yl)-, trans-
Formula: C14H17NO2
CAS: 74240-64-5
Molecular weight: 231
m/z	intensity
15	20
18	31
27	281
28	123
29	422
31	58
39	288
41	763
42	852
43	244
44	21
45	20
50	66
51	94
52	34
53	61
55	999
56	455
57	76
63	25
67	289
68	47
69	216
70	515
71	42
74	18
75	78
76	109
77	94
81	19
82	204
83	301
84	36
86	20
88	26
102	342
103	123
104	341
105	31
114	28
115	40
116	34
117	23
128	87
129	168
130	818
131	114
132	681
133	166
144	31
148	35
230	432
231	442
232	63
