Mass Spectrum: Benzonitrile, 4-(5-pentyl-1,3-dioxan-2-yl)-
Formula: C16H21NO2
CAS: 74240-66-7
Molecular weight: 259
m/z	intensity
27	319
28	119
29	419
39	289
41	820
42	399
43	349
55	999
56	449
67	99
68	49
69	209
70	339
71	39
75	69
76	89
77	79
81	19
82	69
83	99
95	349
96	199
102	149
103	59
104	149
110	49
111	49
130	299
131	49
132	219
144	19
148	19
157	29
258	99
259	109
260	19
