Mass Spectrum: Butanoic acid, 3-bromo-, ethyl ester
Formula: C6H11BrO2
CAS: 7425-49-2
Molecular weight: 194
m/z	intensity
14	4
15	30
19	4
25	5
26	75
27	385
29	808
30	59
31	47
37	23
38	62
39	519
40	118
41	993
42	479
43	628
44	32
45	402
46	11
47	5
50	2
51	2
53	11
55	37
56	3
57	10
58	4
59	13
60	16
61	4
67	4
68	15
69	171
70	14
71	12
72	2
73	999
74	47
75	4
79	27
80	23
81	30
82	23
83	3
85	25
86	11
87	389
88	20
93	27
95	28
97	2
99	6
105	14
106	10
107	53
108	11
109	40
110	3
115	926
116	66
117	8
119	8
120	23
121	516
122	40
123	512
124	19
125	4
135	5
137	3
147	1
149	297
150	15
151	290
152	14
165	2
166	126
167	13
168	126
169	9
194	25
195	5
196	25
197	5
