Mass Spectrum: 2-Pyrrolidinone, 1-octadecyl-
Formula: C22H43NO
CAS: 7425-87-8
Molecular weight: 337
m/z	intensity
39	30
40	10
41	180
42	60
43	210
44	50
53	10
54	20
55	150
56	50
57	120
58	10
67	20
68	20
69	120
70	180
71	80
95	10
96	20
97	30
98	999
99	730
100	60
111	10
112	170
113	90
124	10
126	150
127	60
133	6
134	1
135	4
136	5
137	4
138	5
139	4
140	50
141	25
142	4
147	4
148	1
149	3
150	4
151	3
152	4
153	3
154	40
155	15
156	2
165	1
166	1
167	1
168	31
169	11
170	1
178	1
180	1
182	30
183	11
184	1
191	5
192	1
193	2
194	1
196	25
197	10
198	1
209	3
210	20
211	8
212	1
221	3
222	1
223	1
224	17
225	8
226	1
237	1
238	16
239	7
240	1
249	1
251	1
252	14
253	4
254	1
265	1
266	13
267	5
268	1
280	12
281	4
282	1
283	1
294	10
295	4
296	1
308	10
309	2
320	6
321	1
322	4
323	1
337	40
338	10
339	2
