Mass Spectrum: 6-Oxa-3,9-dithiaundecane-1,11-diol
Formula: C8H18O3S2
CAS: 7426-02-0
Molecular weight: 226
m/z	intensity
26	37
27	311
29	137
31	232
35	76
43	143
44	75
45	779
46	288
47	224
49	29
58	50
59	217
60	399
61	999
62	51
63	95
73	75
74	54
75	137
77	34
79	33
86	152
87	128
89	27
91	93
92	39
93	23
103	29
104	470
105	803
106	69
107	42
135	14
148	11
154	13
208	27
226	4
