Mass Spectrum: 4-Bromo-2-fluoro-6-nitroanisole
Formula: C7H5BrFNO3
CAS: 74266-66-3
Molecular weight: 249
m/z	intensity
15	51
18	9
28	37
29	93
30	373
31	304
32	22
37	47
38	28
39	8
44	13
46	14
49	25
50	101
51	26
52	7
53	60
55	15
56	41
57	36
61	171
62	105
63	37
64	8
68	118
69	131
70	58
71	8
73	38
74	158
75	113
76	82
77	22
79	36
80	118
81	999
82	74
83	35
84	33
92	79
93	299
94	782
95	195
96	595
97	115
108	9
109	26
110	20
111	38
112	66
113	7
123	13
124	129
125	32
135	13
137	20
148	47
150	47
153	14
155	53
157	31
159	3
160	161
161	163
162	181
163	154
164	7
170	26
172	47
173	413
174	72
175	452
176	108
177	31
178	53
188	185
189	708
190	243
191	721
192	71
193	9
204	103
206	85
219	299
220	26
221	282
222	14
249	339
250	25
251	330
252	24
