Mass Spectrum: N,N-Dicyclohexyl-2-[(dicyclohexylcarbamoyl)methoxy]acetamide
Formula: C28H48N2O3
CAS: 74267-27-9
Molecular weight: 460
m/z	intensity
26	1
27	12
28	26
29	34
30	228
31	6
39	18
40	2
41	251
42	43
43	118
44	114
45	61
46	13
47	2
48	0
49	1
50	1
51	2
52	1
53	21
54	50
55	720
56	220
57	53
58	71
59	8
60	293
61	15
62	1
63	1
64	1
65	3
66	3
67	74
68	55
69	53
70	33
71	38
72	8
73	7
74	12
75	1
76	7
77	6
78	1
79	28
80	17
82	86
83	999
84	93
85	23
86	11
87	5
88	313
89	17
90	6
91	3
92	1
93	6
94	13
95	22
96	42
97	56
98	359
99	47
100	26
101	2
102	1
104	0
105	2
106	1
107	3
108	9
109	10
110	43
111	20
112	53
113	11
114	9
115	7
116	42
117	2
118	2
119	2
120	1
121	3
122	6
123	9
124	18
125	12
126	264
127	25
128	6
129	2
130	1
131	0
132	1
133	1
134	1
135	1
136	14
137	7
138	69
140	868
141	334
142	334
143	29
144	2
147	2
148	2
149	5
150	4
151	3
152	6
153	2
154	5
155	2
156	19
157	2
158	6
159	0
160	1
162	1
163	1
164	5
165	3
166	47
167	8
168	12
169	1
170	227
171	27
172	6
173	0
176	1
177	1
178	77
179	48
180	967
181	148
183	1
190	1
192	3
193	2
194	23
195	4
196	8
197	5
198	45
199	4
200	0
201	0
204	0
205	0
206	7
208	82
209	17
210	3
211	0
215	9
216	0
217	1
218	1
219	1
220	1
221	18
222	51
223	730
224	73
225	17
236	3
237	3
238	34
239	9
240	10
249	1
250	4
251	1
252	204
253	48
254	7
255	2
256	1
257	1
278	2
279	2
280	344
281	55
282	8
295	10
296	1
297	13
298	2
321	0
377	26
378	8
379	18
380	3
458	2
459	20
460	19
461	4
