Mass Spectrum: dl-Threo-pentonic acid, 2,5-dideoxy-4-O-(phenylmethyl)-, methyl ester
Formula: C13H18O4
CAS: 74262-67-2
Molecular weight: 238
m/z	intensity
26	2
27	14
29	29
31	14
33	9
38	0
39	36
40	5
41	13
42	16
43	144
44	11
45	16
50	3
51	21
52	5
53	4
54	6
55	13
56	3
57	34
58	3
59	26
61	67
62	4
63	9
64	4
65	73
66	4
70	3
71	157
72	12
73	3
74	14
75	2
77	24
78	3
79	17
81	3
82	8
83	1
85	0
87	1
88	0
89	18
90	14
91	999
92	258
93	21
97	5
98	1
99	4
103	175
104	9
105	10
106	4
107	37
108	4
113	0
114	198
115	15
116	0
117	1
118	2
120	0
130	2
131	2
134	2
135	51
136	4
147	1
163	0
176	4
