Mass Spectrum: N-[2-[2-Pyridinyl]ethyl]succcinimide
Formula: C11H12N2O2
CAS: 74274-11-6
Molecular weight: 204
m/z	intensity
41	69
42	55
43	13
44	15
45	3
47	8
48	2
49	28
50	41
51	108
52	74
53	29
54	28
55	308
56	162
57	11
58	0
60	0
61	2
62	8
63	33
64	29
65	151
66	50
67	15
68	3
69	5
70	9
71	2
72	1
74	8
75	4
76	9
77	30
78	102
79	225
80	37
81	3
82	5
83	6
84	102
85	1
86	17
88	4
90	3
91	18
92	92
93	453
94	64
95	4
97	2
98	3
99	1
102	2
103	0
104	98
105	171
106	999
107	79
108	3
110	0
112	17
117	5
118	9
119	65
120	39
121	49
122	7
125	1
126	2
130	4
131	4
132	32
133	15
134	21
135	2
145	0
146	1
147	28
148	16
149	7
157	4
158	2
159	2
160	5
161	1
175	8
176	1
203	84
204	725
205	112
206	10
207	2
