Mass Spectrum: Isopropylamine, N-benzoyl-.beta.-fluoro-
Formula: C10H12FNO
CAS: 74275-01-7
Molecular weight: 181
m/z	intensity
42	33
43	8
44	8
45	0
47	3
48	1
49	16
50	30
51	129
52	8
53	2
54	0
55	1
56	1
57	2
61	0
62	2
63	2
64	1
65	3
66	0
67	0
68	0
69	6
70	3
71	0
73	1
74	7
75	12
76	23
77	447
78	32
79	4
81	7
82	0
84	12
86	9
87	0
88	1
89	0
90	0
91	2
92	2
93	4
94	0
95	0
96	0
98	0
99	3
100	1
101	0
102	0
103	2
105	999
106	103
107	7
108	0
111	1
112	4
113	1
117	2
118	1
119	2
120	1
121	0
122	6
123	2
124	0
125	1
126	0
127	1
129	0
130	2
131	6
132	2
133	0
134	0
137	2
138	1
139	0
141	0
142	0
143	6
144	1
145	0
146	2
147	3
148	651
149	69
150	7
151	0
155	1
156	1
157	1
158	1
160	0
161	17
162	2
163	5
164	1
165	0
167	0
168	2
169	2
170	0
173	0
174	1
175	2
176	0
177	0
179	1
180	1
181	94
182	7
183	0
