Mass Spectrum: Cyclopropanol, 1-[2,6-dimethyl-1-(phenylseleno)cyclohexyl]-
Formula: C17H24OSe
CAS: 74281-18-8
Molecular weight: 324
m/z	intensity
39	330
40	70
41	610
42	90
43	450
44	180
45	50
50	120
51	260
52	50
53	200
54	50
55	670
56	120
57	700
65	110
66	60
67	470
68	320
69	360
70	50
71	80
74	70
77	440
78	780
79	230
81	390
82	400
83	140
91	120
93	170
95	680
96	140
97	220
105	50
107	110
109	999
110	290
111	150
116	130
117	50
122	70
123	490
124	110
133	50
137	160
138	360
139	110
149	240
151	100
152	60
153	60
154	190
155	190
156	320
157	190
158	630
159	70
160	110
166	130
167	710
168	90
185	90
186	110
324	30
