Mass Spectrum: Tridecanoic acid, 12-oxo-, methyl ester
Formula: C14H26O3
CAS: 74285-16-8
Molecular weight: 242
m/z	intensity
26	26
27	25
28	268
29	42
30	5
31	11
33	1
36	1
38	2
39	12
40	6
41	126
42	26
43	999
44	34
45	26
50	2
51	2
52	2
53	8
54	21
55	291
56	29
57	102
58	626
59	165
60	8
61	2
63	1
64	1
65	2
66	3
67	91
68	42
69	424
70	39
71	249
72	20
73	43
74	237
75	21
76	2
77	4
78	4
79	31
80	12
81	115
82	43
83	256
84	162
85	66
86	9
87	289
88	28
89	2
90	1
91	9
92	6
93	49
94	21
95	123
96	73
97	204
98	322
99	40
100	13
101	44
102	8
104	1
105	5
106	5
107	36
108	37
109	77
110	56
111	200
112	215
113	31
114	12
115	29
116	8
117	2
118	1
119	19
120	4
121	13
122	10
123	27
124	30
125	73
126	26
127	24
128	11
129	37
130	7
131	3
132	12
133	10
134	42
135	281
136	32
137	8
138	4
139	15
140	8
141	12
142	4
143	42
144	7
145	2
146	1
147	2
148	1
149	42
150	16
151	25
152	257
153	630
154	76
155	7
156	2
157	13
158	3
159	4
163	3
164	3
165	7
166	4
167	26
168	10
169	31
170	4
171	3
172	16
173	4
174	0
175	3
176	0
177	3
178	1
180	0
181	2
182	10
183	5
184	107
185	466
186	60
187	4
191	1
192	10
193	2
195	6
199	2
200	5
209	4
210	18
211	182
212	27
213	3
214	2
223	0
224	5
225	1
227	14
228	2
242	55
243	8
244	0
