Mass Spectrum: d-Glucitol, 1-deoxy-1-(hexylamino)-
Formula: C12H27NO5
CAS: 74295-50-4
Molecular weight: 265
m/z	intensity
26	2
27	34
28	10
29	55
30	335
31	28
34	0
36	0
38	0
39	12
40	3
41	72
42	54
43	223
44	732
45	33
46	1
47	0
51	0
52	0
53	4
54	2
55	35
56	30
57	36
58	6
59	2
60	44
61	30
62	0
63	0
65	1
66	1
67	3
68	7
69	9
70	16
71	5
72	20
73	33
74	11
75	0
77	0
78	0
79	1
80	3
81	3
82	3
83	6
84	12
85	8
86	13
87	2
88	0
89	0
90	0
91	2
92	0
93	0
94	0
95	0
96	2
97	1
98	5
99	1
100	12
101	31
102	15
103	2
104	1
107	0
108	0
110	1
111	2
112	6
113	2
114	999
115	74
116	7
117	0
118	0
120	0
122	0
124	0
126	0
127	0
128	1
129	1
130	0
132	0
133	0
134	1
135	0
136	0
138	0
140	0
142	0
143	0
144	83
145	16
146	1
147	0
152	0
154	0
156	2
157	0
158	9
159	0
163	0
164	0
168	0
170	0
172	0
174	44
175	7
176	2
180	0
186	3
187	1
188	0
194	46
195	3
196	0
198	0
204	34
205	4
206	0
216	1
217	0
218	2
229	1
230	2
234	23
235	3
236	1
246	0
247	3
248	5
249	0
250	0
264	1
265	1
266	3
