Mass Spectrum: 19-Norpregna-1,3,5,7,9-pentaen-21-al, 3,17-bis[(trimethylsilyl)oxy]-, O-methyloxime, (17.alpha.)-
Formula: C27H41NO3Si2
CAS: 74299-04-0
Molecular weight: 483
m/z	intensity
57	999
58	37
59	56
60	38
61	30
66	33
67	71
68	54
69	243
70	351
71	968
72	79
73	820
74	96
75	207
76	30
79	28
80	51
81	195
82	163
83	295
84	122
85	334
86	23
87	30
89	92
91	25
92	25
93	192
94	78
95	242
96	138
97	463
98	125
99	216
100	231
101	45
103	23
105	53
106	27
107	72
108	84
109	189
110	139
111	229
112	78
113	192
114	35
115	36
116	37
117	91
118	30
119	60
120	26
121	58
122	60
123	162
124	106
125	221
126	68
127	159
128	34
129	48
130	33
131	46
132	56
133	45
134	44
135	87
136	53
137	157
138	76
139	131
140	203
141	128
142	83
143	69
144	36
145	50
146	9
147	64
148	49
149	117
150	51
151	97
152	49
153	90
154	62
155	939
156	169
157	98
158	214
159	41
161	38
162	26
163	82
164	54
165	88
166	28
167	93
168	78
169	69
170	44
171	50
172	24
173	19
174	25
175	22
176	27
177	87
178	41
179	59
180	47
181	91
182	171
183	85
184	46
185	36
187	36
188	33
189	44
190	23
191	167
192	57
193	63
194	58
195	188
196	68
197	70
198	39
199	22
201	89
202	41
203	36
204	32
205	64
206	42
207	112
208	68
209	65
210	83
211	75
212	95
213	43
214	26
215	42
216	91
217	62
218	44
219	48
220	34
221	47
222	60
223	73
224	42
225	38
226	31
227	40
228	25
229	318
230	176
231	91
232	46
233	37
235	45
237	45
238	29
239	51
240	37
241	42
242	85
243	192
244	96
245	132
246	54
247	40
248	27
249	30
250	32
251	27
252	30
253	55
254	39
255	63
256	42
257	57
259	42
260	28
261	27
263	38
264	47
265	23
266	39
267	80
268	135
269	100
270	38
271	44
273	25
274	28
275	27
277	25
279	88
280	54
281	70
282	63
283	54
284	34
285	28
286	23
287	13
289	26
290	30
291	36
292	29
293	111
294	255
295	291
296	129
297	216
298	70
299	90
300	27
301	24
305	40
306	42
307	105
308	67
309	88
310	57
311	63
312	46
313	36
317	23
319	47
320	72
321	170
322	78
323	51
324	29
325	27
329	12
331	9
332	30
333	47
334	140
335	187
336	356
337	125
338	30
339	46
341	7
343	28
344	30
345	49
346	71
347	43
350	23
351	43
352	39
353	33
354	38
355	16
356	6
360	24
361	78
362	179
363	120
364	76
365	47
366	33
367	37
369	740
370	274
371	251
372	84
373	44
374	24
375	23
377	47
378	85
379	331
380	145
381	61
382	38
383	30
384	83
385	44
386	29
393	107
394	59
395	35
396	32
397	37
398	33
401	31
407	23
408	39
409	49
410	26
411	48
412	39
420	28
421	31
422	42
423	120
424	59
425	51
426	24
427	26
434	23
435	40
436	224
437	137
438	83
439	48
449	37
450	117
451	590
452	963
453	374
454	156
455	58
468	133
469	52
470	23
483	179
484	78
485	30
