Mass Spectrum: Benzene, 1-chloro-4-(1,2-dichloroethyl)-
Formula: C8H7Cl3
CAS: 74298-94-5
Molecular weight: 208
m/z	intensity
63	218
74	60
75	179
76	178
77	478
78	160
89	245
90	70
99	72
101	175
102	328
103	755
104	85
125	999
126	158
127	575
128	62
137	181
138	432
139	73
140	123
172	56
174	51
208	74
210	94
