Mass Spectrum: Cyclopentanol, 2-bromo-
Formula: C5H9BrO
CAS: 74305-04-7
Molecular weight: 164
m/z	intensity
22	3
23	0
24	0
25	0
26	47
27	221
29	111
30	29
31	72
33	0
35	0
36	1
37	16
38	37
39	209
40	45
41	291
42	43
43	114
44	57
45	10
49	4
50	17
51	20
52	8
53	51
54	15
55	183
56	58
57	999
58	65
59	2
60	0
61	5
62	6
63	8
64	2
65	25
66	28
67	244
68	38
69	12
70	1
71	45
72	2
79	12
80	22
81	11
82	22
83	48
84	49
85	166
86	9
87	0
92	0
93	3
94	1
95	2
105	1
106	7
107	4
108	6
109	4
111	0
113	0
115	0
117	0
119	3
120	1
121	3
122	10
123	1
124	8
125	1
130	0
135	9
136	21
137	8
138	23
139	0
146	11
147	1
148	10
149	0
163	1
164	76
165	5
166	68
167	3
