Mass Spectrum: Cyclohexanol, 2,2'-[oxybis(2,1-ethanediyloxy)bis-
Formula: C16H30O5
CAS: 74310-49-9
Molecular weight: 302
m/z	intensity
25	1
26	11
27	140
28	75
29	231
30	12
31	180
33	9
38	1
39	76
40	16
41	548
42	127
43	437
44	213
45	767
46	21
47	9
50	1
51	5
52	2
53	76
54	38
55	296
56	36
57	365
58	90
59	56
60	8
61	17
62	20
63	9
64	6
65	13
66	12
67	114
68	42
69	175
70	257
71	70
72	73
73	149
74	12
75	36
76	4
77	24
78	4
79	127
80	61
81	952
82	95
83	112
84	21
85	15
86	18
87	46
88	45
89	179
90	14
91	7
92	1
93	7
94	5
95	14
96	35
97	131
98	767
99	999
100	73
101	57
102	4
103	4
104	2
105	8
106	1
107	98
108	6
109	5
110	2
111	5
112	20
113	21
114	21
115	25
116	7
117	6
118	1
119	3
121	1
123	2
124	8
125	5
126	2
127	16
128	4
129	19
130	35
131	4
132	1
133	1
135	1
137	1
139	1
140	34
141	46
142	120
143	78
144	10
145	8
148	1
149	2
150	1
153	1
155	7
156	3
157	2
158	12
159	53
160	8
161	4
167	1
168	3
169	2
171	1
173	3
177	1
178	1
183	1
185	13
186	20
187	70
188	8
189	1
202	2
203	1
204	1
205	70
206	8
207	1
266	1
284	1
302	1
303	1
