Mass Spectrum: 9-Octadecenoic acid, 12-hydroxy-
Formula: C18H34O3
CAS: 7431-95-0
Molecular weight: 298
m/z	intensity
26	4
27	74
28	20
29	98
30	5
31	26
36	2
37	1
38	3
39	64
40	13
41	375
42	64
43	348
44	44
45	58
46	2
47	1
49	2
50	3
51	6
52	4
53	52
54	181
55	999
56	128
57	135
58	21
59	22
60	84
61	13
62	1
63	2
64	2
65	14
66	15
67	178
68	195
69	388
70	116
71	79
72	9
73	114
74	14
75	3
76	2
77	18
78	14
79	53
80	47
81	235
82	315
83	287
84	394
85	74
86	14
87	55
88	16
89	2
90	1
91	22
92	11
93	47
94	55
95	158
96	295
97	460
98	511
99	51
100	65
101	70
102	20
103	3
104	2
105	10
106	13
107	20
108	32
109	77
110	113
111	75
112	59
113	47
114	147
115	78
116	19
117	3
118	2
119	29
120	9
121	16
122	133
123	143
124	223
125	82
126	12
127	41
128	20
129	16
130	2
131	3
132	6
133	16
134	3
135	14
136	7
137	87
138	37
139	7
140	4
141	22
142	8
143	3
144	1
145	1
147	5
148	95
149	34
150	17
151	15
152	5
153	4
154	3
155	11
156	4
157	2
159	2
160	2
161	1
162	1
163	3
164	4
165	12
166	495
167	81
168	13
169	4
170	1
171	1
172	2
173	2
176	0
177	3
178	2
179	3
180	2
181	3
182	19
183	4
184	266
185	34
186	8
187	1
191	1
193	2
194	2
195	40
196	8
197	12
198	2
200	1
205	2
208	1
209	3
210	4
211	1
213	5
214	1
215	2
220	2
221	1
222	1
223	4
224	2
236	3
237	2
238	1
251	1
256	3
257	1
262	5
263	2
264	3
265	2
278	2
279	6
280	55
281	12
282	3
284	2
285	1
298	8
299	2
