Mass Spectrum: Estra-1,3,5(10)-trien-17-one, 3,15-dihydroxy-, O-methyloxime, (15.beta.)-
Formula: C19H25NO3
CAS: 74312-89-3
Molecular weight: 315
m/z	intensity
58	16
65	101
66	8
67	14
68	10
69	17
70	23
71	17
73	44
75	13
77	18
79	24
81	23
82	28
83	19
84	24
85	10
87	14
89	22
90	25
91	999
92	754
93	80
94	73
95	86
96	96
97	30
98	14
100	27
105	40
106	27
107	95
108	84
109	29
110	27
111	24
112	28
115	23
116	17
117	29
119	23
120	39
121	39
122	34
123	18
124	30
125	19
126	28
127	28
128	20
129	30
131	51
132	30
133	193
134	99
135	21
136	29
137	36
138	40
139	22
140	29
141	45
143	20
144	85
145	126
146	218
147	75
149	7
151	16
153	18
154	7
157	225
158	168
159	216
160	146
161	30
164	16
165	18
169	16
170	23
171	69
172	140
173	52
177	16
181	28
182	18
183	48
184	28
185	75
186	29
187	26
191	7
193	21
194	21
195	39
196	27
197	46
198	33
199	76
200	18
205	17
206	18
208	23
209	92
210	70
211	76
212	50
213	99
214	139
215	36
218	5
219	18
221	54
222	22
223	39
224	38
225	38
226	22
227	40
228	18
233	18
234	20
235	19
236	21
237	19
238	33
239	21
240	28
242	37
244	30
245	16
246	32
248	19
249	44
250	56
251	37
252	37
254	12
260	23
261	45
263	18
264	27
265	61
266	372
267	151
268	53
269	30
281	5
282	60
283	46
284	141
285	34
295	20
296	16
297	101
298	41
299	24
313	51
314	20
315	109
316	28
