Mass Spectrum: 2-(2,2-Diethoxyethyl)cyclohexanone
Formula: C12H22O3
CAS: 74327-26-7
Molecular weight: 214
m/z	intensity
26	38
27	277
29	478
30	20
31	154
38	10
39	162
40	35
41	433
42	86
43	331
44	88
45	123
46	17
47	772
48	10
50	7
51	20
52	12
53	81
54	43
55	265
56	41
57	201
58	99
59	45
60	44
61	100
62	4
63	5
65	28
66	27
67	175
68	51
69	69
70	84
71	71
72	102
73	37
74	3
75	704
76	24
77	46
78	14
79	132
80	29
81	334
82	37
83	98
84	38
85	91
86	9
87	64
88	19
89	167
90	9
91	31
92	3
93	59
94	54
95	219
96	47
97	118
98	68
99	359
100	45
101	14
103	999
104	58
105	39
107	7
109	18
110	18
111	48
112	18
113	121
114	32
115	5
116	218
117	131
118	9
121	35
122	36
123	267
124	40
125	21
127	20
129	6
137	3
138	11
139	83
140	13
141	57
142	4
151	14
153	3
168	33
169	426
170	51
171	5
