Mass Spectrum: Bicyclo[4.1.0]heptan-2-ol, (1.alpha.,2.beta.,6.alpha.)-
Formula: C7H12O
CAS: 7432-49-7
Molecular weight: 112
m/z	intensity
12	7
13	13
14	51
15	220
16	8
17	28
18	88
19	15
25	8
26	152
27	999
28	252
29	726
30	41
31	224
32	4
37	45
38	118
39	985
40	199
41	838
42	254
43	606
44	101
45	59
46	6
47	4
49	12
50	86
51	151
52	70
53	369
54	268
55	837
56	341
57	797
58	651
59	26
60	3
61	11
62	22
63	44
64	12
65	100
66	205
67	355
68	518
69	244
70	495
71	101
72	6
74	6
75	11
76	6
77	206
78	49
79	713
80	65
81	175
82	55
83	421
84	569
85	36
86	5
89	5
91	72
92	10
93	81
94	255
95	47
96	6
97	242
98	18
110	8
111	45
112	50
113	4
