Mass Spectrum: Terephthalylidene bis(p-nonylaniline)
Formula: C38H52N2
CAS: 74324-26-8
Molecular weight: 536
m/z	intensity
41	742
42	152
43	999
44	115
45	66
47	21
55	344
56	94
57	443
60	37
65	49
67	19
68	15
69	207
70	48
71	155
73	70
77	80
78	51
90	120
91	198
95	65
96	67
97	110
98	23
99	21
106	338
107	20
149	17
155	665
194	15
219	17
311	183
423	103
536	187
537	80
