Mass Spectrum: N-(.gamma.-L-Glutamyl)phenylalanine
Formula: C14H18N2O5
CAS: 7432-24-8
Molecular weight: 294
m/z	intensity
14	2
15	10
16	1
17	9
18	42
19	1
25	1
26	14
27	45
28	318
29	39
30	36
31	3
36	1
37	4
38	9
39	65
40	14
41	288
42	57
43	24
44	21
45	26
46	41
47	2
49	1
50	12
51	38
52	14
53	9
54	22
55	38
56	115
57	15
58	9
59	16
60	24
61	2
62	6
63	20
64	6
65	87
66	16
67	4
68	9
69	7
70	8
71	2
73	12
74	725
75	22
76	7
77	60
78	17
79	6
80	3
81	2
82	5
83	17
84	999
85	66
86	6
87	2
88	1
89	17
90	12
91	747
92	168
93	27
94	5
95	2
96	1
97	2
98	88
99	6
100	1
101	6
102	8
103	81
104	29
105	5
106	1
107	2
111	2
112	2
113	2
114	1
115	1
116	4
117	13
118	29
119	26
120	432
121	41
122	2
123	3
127	1
128	6
129	24
130	7
131	10
132	5
139	9
140	1
142	1
143	2
144	1
145	1
146	4
147	12
148	34
149	4
153	1
156	1
157	1
158	1
160	1
165	12
166	2
167	7
168	3
174	1
175	28
176	4
181	1
183	2
184	1
185	7
186	2
187	1
192	1
193	9
194	2
202	2
203	19
204	3
212	1
213	2
214	2
215	5
229	2
230	3
231	1
232	4
256	1
257	2
258	63
259	9
260	1
276	3
277	1
294	32
295	6
296	1
