Mass Spectrum: L-Tryptophan, N-[(phenylmethoxy)carbonyl]-
Formula: C19H18N2O4
CAS: 7432-21-5
Molecular weight: 338
m/z	intensity
16	1
17	3
18	11
26	1
27	9
28	26
29	5
31	3
32	2
37	2
38	5
39	23
40	2
41	4
42	3
43	15
44	54
45	1
49	1
50	19
51	48
52	15
53	12
54	3
55	2
56	1
57	3
58	7
61	2
62	8
63	19
64	7
65	32
66	2
69	1
70	6
71	4
73	1
74	9
75	10
76	13
77	150
78	33
79	216
80	18
81	2
83	1
85	1
86	2
87	3
88	3
89	25
90	24
91	72
92	12
93	1
97	1
98	1
100	1
101	9
102	28
103	51
104	7
105	10
106	5
107	148
108	234
109	18
110	1
111	1
113	3
114	6
115	33
116	13
117	12
118	2
127	2
128	27
129	45
130	999
131	110
132	7
135	1
139	1
140	6
141	7
142	17
143	79
144	12
145	2
154	1
155	9
156	8
157	9
158	21
159	8
160	1
165	1
166	4
167	4
168	9
169	6
170	2
171	2
178	1
179	1
180	1
183	2
184	43
185	8
186	4
187	5
198	1
204	2
205	1
206	1
212	3
217	2
218	2
219	1
220	9
221	2
229	1
230	105
231	15
232	3
233	1
244	1
245	1
246	1
247	2
248	1
259	1
260	1
261	1
262	3
263	2
276	1
277	6
278	1
320	1
338	8
339	2
