Mass Spectrum: Benzenepropanoic acid, 3,7-dimethylocta-2,6-dienyl ester
Formula: C19H26O2
CAS: 74339-36-9
Molecular weight: 286
m/z	intensity
25	48
26	11
27	33
28	0
29	0
30	0
37	1
39	61
40	20
41	404
42	21
43	36
44	2
45	1
47	3
50	7
51	32
52	10
53	77
54	9
55	45
56	7
57	9
59	3
62	1
63	8
64	3
65	41
66	15
67	107
68	338
69	999
70	67
71	9
72	3
74	1
75	4
76	3
77	82
78	42
79	83
80	226
81	123
82	18
83	12
84	19
85	15
86	1
87	0
88	1
89	7
90	6
91	512
92	170
93	457
94	83
95	44
96	13
97	9
98	5
99	1
101	2
102	5
103	43
104	133
105	497
106	48
107	118
108	30
109	13
110	4
111	7
112	3
113	1
115	3
116	1
117	3
118	1
119	8
120	4
121	267
122	36
123	47
124	5
125	2
126	1
127	1
128	1
129	2
131	7
132	4
133	171
134	24
136	475
137	85
138	6
139	6
140	1
141	1
142	0
143	2
145	2
146	0
147	1
148	2
149	29
150	160
151	17
152	3
153	4
154	34
155	5
156	0
157	8
158	12
159	2
162	1
163	2
165	1
167	1
170	1
171	1
175	1
176	0
181	1
183	1
186	1
192	0
215	0
216	1
217	21
218	3
219	0
228	1
230	1
243	6
244	1
286	7
287	1
