Mass Spectrum: 2,3,4-Trimethyl-d-xylose
Formula: C8H16O5
CAS: 7434-17-5
Molecular weight: 192
m/z	intensity
41	117
43	99
45	307
47	29
53	14
55	44
56	7
57	30
58	135
59	62
61	26
65	1
67	1
68	9
69	38
71	58
73	183
74	97
75	47
77	1
81	0
83	31
84	24
85	25
86	9
87	38
88	300
89	23
91	3
97	0
99	18
101	999
102	54
103	11
105	2
111	1
113	0
114	27
115	11
117	3
119	1
127	1
129	15
131	14
132	1
133	3
135	0
141	0
143	27
145	3
147	4
149	1
157	1
159	13
160	22
162	22
163	1
174	7
175	74
176	4
177	0
