Mass Spectrum: 5-Hydroxyindole-2-carboxylic acid, 3TMS derivative
Formula: C18H31NO3Si3
CAS: 74367-47-8
Molecular weight: 393
m/z	intensity
31	3
41	9
42	2
43	19
44	21
45	182
46	13
47	13
49	1
50	2
51	4
52	1
53	2
54	2
55	10
56	3
57	9
58	6
59	15
60	2
61	6
62	1
63	3
64	1
65	6
66	1
67	6
68	2
69	4
70	3
71	3
72	14
73	999
74	77
75	75
76	7
78	1
79	4
80	2
81	5
82	2
83	7
84	9
85	3
86	1
87	1
88	2
89	2
91	3
93	6
94	5
95	4
96	3
99	2
100	1
101	3
102	6
103	5
104	1
105	3
106	1
107	2
108	2
109	3
110	1
113	1
114	11
115	7
116	5
117	13
118	2
119	6
120	2
121	2
122	1
127	2
128	7
129	13
130	14
131	19
132	7
133	21
134	4
135	3
136	1
138	1
140	2
141	1
142	4
143	4
144	6
145	8
146	6
147	100
148	16
149	9
150	1
151	2
153	1
154	2
155	1
156	7
157	3
158	29
159	7
160	15
161	9
162	3
163	1
165	7
166	1
168	1
169	2
170	9
171	4
172	15
173	6
174	8
175	3
176	1
177	3
178	1
184	4
185	2
186	14
187	6
188	23
189	9
190	4
191	1
192	1
193	3
198	1
199	1
200	7
201	4
202	14
203	9
204	7
205	3
206	1
214	4
215	7
216	28
217	7
218	19
219	5
220	2
228	3
229	4
230	13
231	108
232	48
233	15
234	5
235	1
242	1
246	57
247	13
248	10
249	2
250	1
256	1
258	1
259	1
260	27
261	9
262	12
263	2
264	1
273	1
274	13
275	16
276	10
277	4
278	1
286	1
287	1
288	6
289	4
290	19
291	5
292	8
293	2
294	1
302	3
303	10
304	56
305	29
306	17
307	5
308	1
318	5
319	4
320	15
321	28
322	6
323	3
324	1
325	3
326	6
334	14
335	4
336	3
337	1
344	1
346	1
348	5
349	2
350	2
365	13
378	925
379	274
380	125
381	27
382	5
392	34
393	148
394	47
395	21
396	4
397	1
