Mass Spectrum: 5-Nitroindole, TMS derivative
Formula: C11H14N2O2Si
CAS: 74367-59-2
Molecular weight: 234
m/z	intensity
30	60
31	5
37	1
38	3
39	8
40	1
41	1
42	4
43	72
44	25
45	154
46	12
47	4
49	1
50	5
51	7
52	3
53	23
54	8
55	11
56	3
57	5
58	11
59	20
60	3
61	3
62	13
63	16
64	4
65	4
66	8
67	9
68	4
69	6
70	4
71	4
72	13
73	999
74	69
75	56
76	9
77	15
78	4
80	2
81	2
83	8
84	6
85	2
86	1
87	7
88	13
89	13
90	2
91	6
92	3
93	5
94	4
95	1
96	1
98	1
100	1
101	1
102	5
103	18
104	7
105	10
107	1
108	1
110	1
113	1
114	8
115	47
116	16
117	13
118	3
119	6
120	4
121	2
127	1
128	4
129	6
130	23
131	14
132	9
133	3
134	4
135	2
142	2
143	4
144	12
145	36
146	15
147	3
148	2
154	1
155	1
156	23
157	9
158	14
159	5
160	11
161	8
162	7
163	2
169	1
170	13
171	4
172	28
173	29
174	16
175	3
176	1
184	1
185	1
186	12
187	13
188	61
189	19
190	4
191	1
202	2
203	1
204	2
216	1
217	1
218	9
219	124
220	16
221	2
233	1
234	442
235	77
236	21
237	2
