Mass Spectrum: Cyclohexaneacetic acid, TMS derivative
Formula: C11H22O2Si
CAS: 74367-73-0
Molecular weight: 214
m/z	intensity
15	2
26	2
27	19
28	12
29	24
30	1
31	2
38	2
39	36
40	8
41	82
42	15
43	39
44	12
45	66
46	5
47	37
48	2
49	2
50	1
51	4
52	3
53	23
54	17
55	100
56	14
57	5
58	12
59	22
60	10
61	41
62	3
63	2
65	6
66	4
67	31
68	11
69	6
70	2
71	4
72	37
73	373
74	50
75	564
76	43
77	36
78	5
79	55
80	12
81	52
82	21
83	23
84	3
85	6
86	1
87	3
88	7
89	8
90	5
91	14
92	4
93	5
94	2
95	17
96	12
97	17
98	3
99	32
100	4
101	14
102	1
103	3
105	13
106	2
107	18
108	2
109	1
111	5
112	3
113	4
114	1
116	49
117	999
118	94
119	41
120	2
121	1
123	10
124	11
125	5
126	1
127	2
129	16
130	3
131	65
132	362
133	85
134	20
135	3
141	1
142	2
143	7
144	3
145	2
151	1
153	2
155	30
156	6
157	13
158	2
159	1
169	3
170	1
171	3
181	10
182	2
183	2
197	2
199	385
200	62
201	19
213	1
214	6
215	1
