Mass Spectrum: Propanedioic acid, (cyclohexylidenemethyl)-, dimethyl ester
Formula: C12H18O4
CAS: 74367-19-4
Molecular weight: 226
m/z	intensity
46	220
67	190
77	180
79	380
91	120
94	999
95	270
133	510
134	190
135	220
138	150
162	160
163	170
166	350
226	40
