Mass Spectrum: 1H-Indole, 1-(trimethylsilyl)-3-[2-[(trimethylsilyl)oxy]-2-propenyl]-
Formula: C17H27NOSi2
CAS: 74367-62-7
Molecular weight: 317
m/z	intensity
30	3
31	1
39	3
41	8
42	20
43	56
44	35
45	172
46	11
47	57
48	1
49	8
51	16
53	9
54	9
55	10
56	1
57	21
58	16
59	19
60	4
61	17
63	4
64	6
65	8
67	3
69	2
70	1
71	1
72	13
73	999
74	72
75	223
76	13
77	48
78	9
84	17
85	2
86	3
87	6
88	6
90	5
91	9
93	9
96	2
100	2
101	7
102	13
103	8
105	6
106	2
107	5
108	4
111	4
112	2
113	7
115	22
116	13
117	30
120	9
123	7
124	4
125	2
126	3
127	5
128	17
129	25
130	9
131	11
132	9
133	7
134	5
136	4
137	4
138	4
140	6
141	5
142	9
143	11
144	11
145	15
146	3
147	46
148	10
149	7
150	1
151	6
154	9
155	9
156	65
157	13
160	9
161	3
163	2
165	1
166	8
170	19
171	86
172	30
173	11
174	6
175	2
184	12
186	14
187	6
188	6
189	5
191	3
194	2
198	4
199	3
200	23
201	10
202	576
203	83
204	28
205	3
207	1
208	6
212	3
214	6
215	7
216	10
217	4
218	2
220	1
221	10
222	7
223	7
225	3
226	9
227	16
228	9
229	12
230	18
231	5
232	5
244	8
245	57
246	36
247	7
255	4
260	2
261	34
262	9
263	4
267	2
274	6
282	2
284	2
295	1
296	3
302	12
303	6
313	16
314	5
315	5
316	17
317	191
318	106
319	29
320	12
