Mass Spectrum: 2-Ketohexanoic acid, trimethylsilyl ester
Formula: C9H18O3Si
CAS: 74367-72-9
Molecular weight: 202
m/z	intensity
15	4
26	4
27	34
28	19
29	56
30	2
31	3
35	1
38	2
39	21
40	4
41	64
42	16
43	43
44	28
45	105
46	9
47	23
48	2
49	2
51	2
53	6
54	2
55	34
56	10
57	86
58	37
59	27
60	6
61	19
62	1
63	1
67	2
69	4
70	2
71	3
72	12
73	999
74	83
75	288
76	20
77	16
81	1
82	1
83	4
84	4
85	39
86	5
87	2
89	3
91	1
95	2
97	1
99	6
100	2
101	53
102	5
103	5
111	1
113	9
114	1
115	23
116	33
117	35
118	4
119	3
125	2
127	1
129	54
130	7
131	20
132	3
133	1
141	2
143	186
144	23
145	22
146	2
147	1
157	2
158	8
159	3
169	9
170	1
171	1
187	8
188	2
