Mass Spectrum: Indole-3-carboxaldehyde, TMS derivative
Formula: C12H15NOSi
CAS: 74367-39-8
Molecular weight: 217
m/z	intensity
37	1
38	3
39	20
41	3
42	5
43	80
44	39
45	162
46	11
47	18
48	1
49	3
50	7
51	13
52	4
53	24
54	8
55	12
56	5
57	10
58	27
59	41
60	4
61	10
62	19
63	35
64	7
65	8
66	6
67	8
68	3
69	2
70	5
71	4
72	21
73	999
74	87
75	98
76	12
77	35
78	5
79	5
80	3
83	3
84	19
85	3
86	6
87	9
88	14
89	61
90	14
91	8
92	3
93	21
94	4
95	7
96	2
97	3
98	1
99	1
100	21
102	11
103	10
104	3
105	3
107	2
108	1
110	1
113	1
114	9
115	43
116	69
117	24
118	7
119	7
120	3
121	3
122	1
123	1
126	1
127	5
128	28
129	14
130	23
131	11
132	7
133	5
134	3
135	2
136	1
140	3
141	3
142	10
143	29
144	114
145	90
146	22
147	12
148	3
149	3
151	2
153	1
154	2
155	2
156	17
157	7
158	11
159	4
160	13
161	4
162	1
166	1
167	2
170	14
171	4
172	36
173	8
174	16
175	10
176	3
182	2
183	1
184	24
185	7
186	21
187	10
188	23
189	8
190	2
198	1
200	9
201	5
202	290
203	46
204	15
205	1
213	1
214	6
216	386
217	986
218	180
219	51
220	5
