Mass Spectrum: Propanoic acid, 2-methyl-, 2-(hydroxymethyl)-1-propylbutyl ester
Formula: C12H24O3
CAS: 74367-32-1
Molecular weight: 216
m/z	intensity
39	40
40	16
41	105
43	463
44	121
46	16
49	16
51	16
53	24
54	24
55	146
56	73
57	16
67	32
69	40
70	73
71	999
72	40
73	24
81	16
82	81
83	89
85	24
89	73
99	24
100	24
101	16
127	24
137	16
