Mass Spectrum: 1H-Indole, 1-(trimethylsilyl)-3-[[(trimethylsilyl)oxy]methyl]-
Formula: C15H25NOSi2
CAS: 74367-44-5
Molecular weight: 291
m/z	intensity
15	1
27	1
29	4
31	3
39	2
42	2
43	39
44	22
45	156
46	10
47	14
48	1
49	1
50	3
51	5
52	4
53	5
54	2
55	6
56	2
57	10
58	14
59	36
60	4
61	7
62	1
63	4
64	1
65	2
66	3
67	2
68	1
69	2
70	5
71	5
72	19
73	999
74	93
75	81
76	15
77	16
78	4
79	2
81	1
82	1
83	3
84	4
85	2
86	1
87	7
88	2
89	10
90	3
91	7
92	2
93	3
95	1
97	1
98	1
99	1
100	2
101	11
102	53
103	27
104	5
105	10
106	2
107	2
108	2
113	2
114	2
115	20
116	7
117	17
118	4
119	9
120	2
121	2
122	20
127	3
128	27
129	160
130	66
131	31
132	10
133	11
134	7
135	3
136	1
138	46
140	1
141	2
142	7
143	14
144	16
145	43
146	14
147	298
148	50
149	25
150	3
151	1
154	2
155	1
156	18
157	5
158	5
159	7
160	13
161	7
162	13
163	2
164	1
168	1
169	6
170	23
171	5
172	22
173	5
174	10
175	2
176	1
177	1
182	4
183	2
184	11
185	5
186	40
187	11
188	21
189	6
190	8
191	1
192	1
193	1
194	1
198	3
199	3
200	63
201	18
202	905
203	177
204	47
205	5
214	3
215	2
216	29
217	7
218	20
219	5
220	1
230	1
232	1
233	1
244	1
246	2
258	1
260	6
261	2
262	1
274	6
275	2
276	48
277	13
278	5
279	1
288	4
290	571
291	613
292	181
293	58
294	10
295	2
