Mass Spectrum: 1,1,1,3,3,3-Hexafluoro-2-[(1-tert.-butyloxycarbonyl)-ethoxyimino]propane
Formula: C10H13F6NO3
CAS: 74387-57-8
Molecular weight: 309
m/z	intensity
41	314
42	32
43	134
44	32
45	21
55	43
56	72
57	999
58	142
59	446
60	12
67	43
69	223
70	5
96	23
97	28
101	43
112	38
161	45
181	25
208	236
209	25
210	6
