Mass Spectrum: 5,6-Benzo-4,7,13,16,21-pentaoxa-1,10-diazabicyclo[8.8.5]tricosane
Formula: C20H32N2O5
CAS: 74385-13-0
Molecular weight: 380
m/z	intensity
54	71
55	129
56	857
57	157
58	171
59	27
68	41
69	114
70	329
71	157
72	157
73	21
82	100
83	71
84	193
85	71
86	129
87	40
88	229
89	17
95	50
96	93
97	50
98	107
99	49
100	457
101	49
102	136
103	10
110	41
111	38
112	129
113	79
114	999
115	93
116	43
121	121
122	79
125	79
126	71
127	34
128	107
129	93
130	50
132	71
133	13
144	164
145	31
146	243
147	13
153	71
154	14
158	71
162	64
163	16
174	43
175	71
176	53
179	171
180	79
181	14
192	164
193	35
194	79
195	16
205	64
206	47
207	41
210	121
211	19
223	93
224	27
227	79
228	12
235	71
236	43
237	31
257	71
258	12
271	529
272	100
273	13
305	38
319	45
320	11
321	11
335	19
336	24
337	37
338	10
349	171
350	45
351	16
363	52
364	13
379	30
380	164
381	41
