Mass Spectrum: N-Benzyloxy-2,2-(trifluoromethyl)aziridine
Formula: C11H9F6NO
CAS: 74387-63-6
Molecular weight: 285
m/z	intensity
28	32
29	105
30	11
39	48
40	11
41	66
47	9
51	42
53	7
65	83
66	11
69	67
70	2
77	123
78	33
91	999
92	79
93	11
105	43
106	37
178	23
185	31
186	5
285	22
286	3
