Mass Spectrum: N-(1-Tert.-butoxycarbonylethoxy)-2,2-bis(trifluoromethyl)aziridine
Formula: C11H15F6NO3
CAS: 74387-67-0
Molecular weight: 323
m/z	intensity
29	81
30	7
39	39
41	135
42	32
43	61
44	5
55	37
56	51
57	999
58	73
59	51
60	4
69	41
70	4
128	101
129	5
178	253
179	22
222	141
223	7
