Mass Spectrum: 2-Propen-1-amine, N-nitro-
Formula: C3H6N2O2
CAS: 74386-81-5
Molecular weight: 102
m/z	intensity
27	650
28	976
30	919
39	999
40	294
41	646
44	317
45	42
46	130
54	545
55	618
75	65
