Mass Spectrum: 2-Propanone, 1,1,1,3,3,3-hexafluoro-, o-(phenylmethyl)oxime
Formula: C10H7F6NO
CAS: 74387-54-5
Molecular weight: 271
m/z	intensity
50	73
51	293
52	93
53	45
63	112
64	65
65	697
66	76
67	2
69	123
70	1
77	283
78	93
79	34
91	999
92	123
93	9
105	45
271	30
272	2
