Mass Spectrum: Krypton
Formula: Kr
CAS: 7439-90-9
Molecular weight: 84
m/z	intensity
41	34
42	159
43	49
78	6
80	42
82	206
83	205
84	999
86	306
