Mass Spectrum: 1,1,1,3,3,3-Hexafluoro-2-(ethoxycarbonylmethoxyimino)propane
Formula: C7H7F6NO3
CAS: 74399-97-6
Molecular weight: 267
m/z	intensity
27	213
28	143
29	999
30	112
31	264
32	2
41	71
42	92
43	478
44	52
45	123
46	3
59	273
60	12
69	695
70	9
73	62
87	92
88	32
95	21
96	67
97	65
99	74
124	175
125	9
166	73
172	21
192	45
194	556
195	265
196	16
197	2
248	46
249	3
267	101
268	8
269	1
