Mass Spectrum: Benzobarbital
Formula: C19H16N2O4
CAS: 744-80-9
Molecular weight: 336
m/z	intensity
26	1
27	4
28	3
29	5
38	1
39	9
40	1
41	2
42	1
43	4
44	2
50	12
51	55
52	5
53	2
54	1
57	1
58	1
62	3
63	9
64	2
65	8
66	1
69	2
70	18
71	1
74	3
75	7
76	15
77	296
78	27
79	2
87	1
88	1
89	14
90	5
91	35
92	3
93	1
94	1
101	1
102	8
103	37
105	999
106	77
107	5
113	1
114	1
115	49
116	13
117	83
118	18
119	2
120	1
121	1
122	1
128	1
129	1
130	1
131	3
132	4
133	1
142	2
143	1
144	3
145	4
146	158
147	18
148	2
159	1
160	2
161	2
174	1
187	1
189	1
204	8
205	1
214	1
231	3
232	2
308	4
309	1
336	21
337	5
338	1
