Mass Spectrum: Retinol, 5,8-epoxy-5,8-dihydro-, acetate
Formula: C22H32O3
CAS: 744-98-9
Molecular weight: 344
m/z	intensity
39	90
41	360
42	40
43	999
44	40
45	200
51	40
53	120
55	330
56	40
57	70
60	180
65	90
67	140
69	340
70	30
71	40
77	230
78	60
79	230
81	220
83	110
91	360
92	70
93	410
94	60
95	510
105	360
106	70
107	380
108	180
109	290
115	80
117	90
119	350
120	200
121	480
122	150
123	210
127	40
128	70
129	80
131	110
132	40
133	100
134	40
135	210
136	90
137	80
141	50
142	70
143	80
145	130
147	150
148	70
149	570
150	70
155	50
156	30
157	90
158	30
159	90
160	30
161	120
162	40
163	100
164	400
165	800
166	100
167	40
169	40
171	100
172	40
173	100
175	70
177	280
178	80
183	50
185	60
187	40
191	120
192	160
193	30
197	40
199	90
201	80
203	70
204	40
205	190
213	70
215	120
217	50
218	90
227	70
229	40
231	40
241	70
243	30
255	40
269	530
270	130
271	440
272	90
283	50
284	999
285	440
286	210
287	40
329	80
344	470
345	110
346	20
