Mass Spectrum: Methyl-2,3-di-O-methyl-4-O-(2,3,4-tri-O-methyl.alpha.d-xylopyranosyl).beta.d-xylopyranoside
Formula: C16H30O9
CAS: 74405-71-3
Molecular weight: 366
m/z	intensity
45	86
58	26
59	57
71	199
75	377
83	48
84	37
85	55
87	77
88	999
99	177
101	666
111	62
114	67
115	222
129	11
131	22
143	622
145	111
157	5
159	9
161	3
174	4
175	422
197	5
205	2
229	99
235	144
249	3
261	77
274	2
275	1
303	1
336	0
