Mass Spectrum: 5-Methylpyrimido[4,5-E]]tetrazolo[1,5-b][1,2,4]-triazine-6,8(5H,7H)-dione
Formula: C6H4N8O2
CAS: 74409-50-0
Molecular weight: 220
m/z	intensity
40	180
41	799
42	100
52	161
53	409
54	111
58	210
59	29
64	110
65	20
66	220
67	422
68	81
79	180
80	230
81	389
92	50
93	999
94	459
95	40
121	360
122	30
164	182
192	441
220	908
221	80
