Mass Spectrum: Argon
Formula: Ar
CAS: 7440-37-1
Molecular weight: 40
m/z	intensity
20	146
36	3
38	0
40	999
