Mass Spectrum: 2-Cyanohistamine
Formula: C6H8N4
CAS: 74419-78-6
Molecular weight: 136
m/z	intensity
41	150
42	122
43	162
44	285
45	276
46	166
51	66
52	123
53	194
54	107
55	88
56	67
57	57
60	23
64	23
65	32
66	24
67	23
69	30
77	86
78	151
79	34
80	53
81	29
106	263
107	999
108	97
136	123
