Mass Spectrum: Histidin-2-oic acid, N-benzoyl-, diethyl(ester)
Formula: C18H21N3O5
CAS: 74419-71-9
Molecular weight: 359
m/z	intensity
42	469
43	853
44	176
45	749
46	198
47	114
49	198
50	66
51	147
52	43
53	29
54	12
55	126
56	39
57	92
58	14
59	54
60	999
61	115
62	19
63	32
64	10
65	31
66	13
67	24
68	15
69	57
70	25
71	77
72	17
73	231
74	39
75	33
76	30
77	293
78	258
79	40
80	7
81	24
82	15
83	30
84	14
85	26
86	5
87	25
88	28
89	67
90	8
91	117
92	18
93	16
94	15
95	36
96	14
97	28
98	10
99	14
100	7
101	17
102	5
103	31
104	26
105	474
106	188
107	50
108	10
109	16
110	10
111	19
112	9
113	12
114	4
115	19
116	8
117	24
118	9
119	33
120	15
121	278
122	90
123	26
124	150
125	23
126	6
127	10
128	12
129	17
130	4
131	12
132	6
133	24
134	9
135	25
136	9
137	9
138	6
139	8
140	4
141	12
142	5
143	10
144	6
145	19
146	6
147	19
148	6
149	58
150	10
151	9
152	4
153	5
154	7
155	6
156	3
157	8
158	4
159	8
160	3
161	13
162	6
163	7
164	3
165	5
166	8
167	16
168	6
169	7
170	3
171	5
172	2
173	6
174	5
175	9
176	4
177	5
178	4
179	5
180	3
181	3
182	4
183	4
185	3
187	6
189	11
190	6
191	8
192	8
193	6
194	3
195	3
196	2
197	6
199	12
200	3
201	5
203	8
205	5
206	3
207	6
208	3
209	3
210	3
211	3
212	3
213	5
214	3
215	3
217	4
218	4
219	4
220	11
221	4
222	7
223	4
226	4
227	3
228	5
230	3
231	5
232	8
233	3
235	2
236	3
237	4
238	27
239	8
240	6
241	3
242	3
243	2
246	9
247	3
248	5
253	3
254	29
255	6
256	3
257	3
258	2
260	3
261	4
262	3
263	4
270	3
271	4
278	3
279	9
282	4
284	2
285	4
286	95
287	40
288	9
300	3
307	3
312	2
313	12
314	26
315	11
316	2
328	3
330	17
331	6
335	3
342	5
358	3
359	823
360	203
361	32
362	4
