Mass Spectrum: Histamine, N-benzoyl-2-ethoxycarbonyl-
Formula: C15H17N3O3
CAS: 74419-70-8
Molecular weight: 287
m/z	intensity
41	18
42	12
43	18
44	13
45	5
46	1
49	1
50	37
51	168
52	26
53	33
54	49
55	32
56	15
57	6
58	0
60	3
61	1
62	2
63	5
64	2
65	5
66	17
67	10
68	6
69	7
70	10
71	3
72	0
73	5
74	8
75	11
76	37
77	685
78	52
79	21
80	71
81	34
82	8
83	4
84	3
85	2
86	0
87	1
88	1
89	4
90	1
91	5
92	5
93	16
94	298
95	29
96	2
97	3
98	1
99	0
101	1
102	1
103	6
104	29
105	999
106	94
107	52
108	165
109	17
110	3
111	1
112	0
113	0
114	1
115	4
116	3
117	5
118	1
119	2
120	58
121	43
122	89
123	8
124	1
125	19
126	62
127	6
128	1
129	3
130	2
131	1
132	2
133	2
134	130
135	26
136	26
137	7
138	16
139	8
140	1
141	1
142	1
143	1
144	1
146	4
147	2
148	121
149	75
150	9
151	1
152	2
153	12
154	233
155	23
156	3
157	2
158	1
159	1
160	1
161	2
162	1
163	1
164	9
165	2
166	510
167	78
168	8
169	3
170	2
171	11
172	2
176	39
177	5
178	0
182	2
183	0
184	0
185	0
186	1
187	0
188	1
189	39
190	7
198	1
199	0
205	1
207	0
210	2
211	0
212	2
213	3
214	6
215	1
222	2
223	0
224	0
226	0
227	0
228	0
229	0
230	2
238	0
239	0
240	6
241	1
242	4
243	1
245	0
248	1
254	0
255	4
256	1
258	6
259	1
263	3
264	0
267	2
268	0
270	3
271	0
282	0
283	0
284	0
285	1
286	1
287	170
288	60
289	9
290	0
