Mass Spectrum: Histidine, N-t-butoxycarbonyl-2-trifluoromethyl-
Formula: C12H16F3N3O4
CAS: 74419-83-3
Molecular weight: 323
m/z	intensity
41	752
42	44
43	48
44	999
45	31
46	12
48	3
49	15
50	57
51	58
52	21
53	62
54	32
55	237
56	631
57	351
58	22
59	101
60	11
61	3
62	2
63	2
64	3
65	3
66	5
67	6
68	3
69	19
70	6
71	8
72	3
73	9
74	9
76	3
77	9
78	9
79	4
80	4
81	15
82	9
83	8
84	4
85	6
86	24
87	4
89	3
91	3
93	3
94	2
95	5
96	4
97	6
98	3
99	4
100	3
101	8
102	18
103	4
105	9
106	6
107	4
108	5
109	7
110	4
111	5
112	2
113	2
114	3
115	4
116	1
119	2
120	13
121	6
122	3
123	3
124	7
125	3
127	1
128	2
129	15
130	13
131	5
133	1
134	1
135	2
136	6
137	4
138	3
141	4
143	3
148	5
149	50
150	106
151	9
153	1
154	1
155	1
156	1
157	2
158	6
161	8
162	17
163	4
164	3
166	1
167	1
168	2
169	1
175	3
176	3
177	40
178	58
179	5
181	11
182	2
184	6
185	4
188	32
189	5
190	3
201	1
202	1
203	3
204	26
205	6
206	28
207	3
221	18
222	15
223	8
224	1
229	1
230	5
232	15
233	2
234	6
248	2
249	59
250	22
251	3
259	1
262	3
267	16
268	1
277	2
278	6
279	1
323	2
