Mass Spectrum: 2-Heptene, 5-ethyl-2,4-dimethyl-
Formula: C11H22
CAS: 74421-06-0
Molecular weight: 154
m/z	intensity
24	0
25	0
26	1
27	47
28	5
29	67
30	1
37	3
38	1
39	47
40	7
41	193
42	16
43	116
44	1
50	1
51	5
52	2
53	23
54	7
55	399
56	23
57	10
58	0
63	1
65	7
66	2
67	46
68	6
69	114
70	14
71	5
77	6
78	1
79	6
80	1
81	11
82	118
83	999
84	104
85	4
91	3
93	1
95	4
96	1
97	2
98	22
99	1
109	1
110	0
111	0
123	0
125	2
154	19
155	2
