Mass Spectrum: Hexane, 1-(hexyloxy)-3-methyl-
Formula: C13H28O
CAS: 74421-18-4
Molecular weight: 200
m/z	intensity
25	0
26	4
27	103
28	28
29	155
30	5
31	9
37	2
38	0
39	63
40	12
41	328
42	114
43	999
44	55
45	28
46	2
51	4
52	4
53	19
54	21
55	314
56	476
57	935
58	31
59	9
64	0
65	2
66	2
67	18
68	21
69	301
70	526
71	81
72	6
73	8
79	0
81	10
82	7
83	143
84	64
85	441
86	24
97	175
98	223
99	34
101	0
103	6
115	10
