Mass Spectrum: Hexane, 1-(hexyloxy)-2-methyl-
Formula: C13H28O
CAS: 74421-17-3
Molecular weight: 200
m/z	intensity
26	9
27	72
28	51
29	115
30	3
31	13
33	2
39	46
40	7
41	255
42	84
43	999
44	28
45	22
50	3
51	2
53	11
54	11
55	149
56	329
57	602
58	36
59	7
60	1
66	1
67	8
68	13
69	124
70	104
71	21
73	1
78	0
79	2
81	5
82	5
83	155
84	84
85	618
86	36
87	1
96	2
97	15
98	106
99	53
100	5
101	3
102	0
103	7
115	30
117	7
