Mass Spectrum: Cyclobuta[1,2-b:3,4-b']dithiophene, octahydro-, 1,1,4,4-tetraoxide
Formula: C8H12O4S2
CAS: 74421-30-0
Molecular weight: 236
m/z	intensity
26	38
27	233
28	49
29	63
30	1
31	1
32	2
33	0
34	1
35	1
36	0
37	2
38	14
39	240
40	33
41	152
42	11
43	46
44	29
45	26
46	8
47	5
48	20
49	3
50	33
51	82
52	90
53	111
54	71
55	34
58	8
59	5
60	2
61	5
62	4
63	22
64	24
65	56
66	47
67	125
68	14
69	5
70	4
71	3
72	3
73	7
74	2
75	5
76	3
77	156
78	115
79	999
80	207
81	37
82	20
83	3
84	3
85	8
86	4
87	5
88	3
89	20
90	2
91	171
92	28
93	366
94	28
95	41
96	8
97	4
98	1
100	0
101	1
102	2
103	6
104	3
105	38
106	31
107	23
108	36
109	11
110	4
111	1
113	0
115	1
116	1
117	2
118	5
119	25
120	1
121	5
122	2
123	12
124	2
125	1
126	1
128	0
129	0
131	2
132	1
133	1
134	0
135	1
136	0
137	0
138	0
141	0
143	2
144	4
145	1
146	0
147	0
148	0
156	0
157	0
158	0
159	0
165	0
169	0
170	0
171	0
172	66
173	7
174	3
175	0
193	0
199	0
201	0
207	6
208	1
209	1
