Mass Spectrum: Cyclobuta[1,2-b:3,4-b']dithiophene, octahydro-, (3a.alpha.,3b.beta.,6a.beta.,6b.alpha.)-
Formula: C8H12S2
CAS: 74421-28-6
Molecular weight: 172
m/z	intensity
26	9
27	15
29	3
32	1
33	1
34	3
35	1
36	0
38	0
39	20
40	2
41	25
42	1
43	0
44	3
45	66
46	6
47	12
48	0
49	1
50	2
51	5
52	3
53	20
54	4
55	4
57	0
58	11
59	12
60	3
61	2
62	0
63	0
64	1
65	16
66	5
67	6
68	0
69	1
70	1
71	16
72	4
73	3
75	0
76	10
77	15
78	5
79	13
80	1
81	1
82	0
83	1
84	17
85	223
86	999
87	65
88	45
89	2
91	13
92	2
93	2
94	0
97	33
98	4
99	8
100	0
103	1
104	1
105	1
106	0
109	2
110	4
111	8
112	2
113	0
115	0
116	3
123	1
124	0
125	8
126	1
127	0
129	0
135	0
137	0
138	0
139	1
141	0
143	1
144	1
149	1
157	0
172	77
173	8
174	7
175	0
