Mass Spectrum: 1,3,2-Dioxaborinane, 2-ethyl-5-methyl-6-phenyl-4-propyl-
Formula: C15H23BO2
CAS: 74421-13-9
Molecular weight: 246
m/z	intensity
27	53
28	368
29	133
30	7
31	28
32	1
33	5
36	1
37	2
38	0
39	30
40	118
41	203
42	36
43	145
44	17
45	23
46	4
47	1
50	2
51	13
52	5
53	14
54	14
55	136
56	171
57	720
58	27
59	44
60	3
61	2
62	1
63	4
64	2
65	21
66	6
67	24
68	31
69	542
70	83
71	92
72	11
73	288
74	25
75	24
76	2
77	38
78	16
79	51
80	8
81	15
82	16
83	100
84	999
85	148
86	14
87	72
88	5
89	10
90	36
91	479
92	43
93	7
95	11
96	12
97	22
98	19
99	40
100	10
101	13
102	4
103	14
104	15
105	181
106	27
107	459
108	54
109	12
110	6
111	18
112	14
113	29
114	6
115	35
116	20
117	142
118	312
119	95
120	21
121	4
122	1
123	2
124	13
125	40
126	8
127	50
128	29
129	68
130	10
131	104
132	22
133	17
134	5
135	3
136	5
137	8
138	17
139	23
140	9
141	16
142	15
143	10
144	3
145	14
146	15
147	39
148	3
149	1
150	1
151	3
152	4
153	17
154	24
155	76
156	9
157	4
158	3
159	4
160	3
161	4
162	14
163	51
164	6
165	3
166	13
167	31
168	47
169	6
170	12
171	8
172	5
173	7
174	27
175	8
176	5
177	1
178	1
179	2
180	4
181	14
182	6
183	1
185	1
186	3
187	9
188	7
189	23
190	7
191	1
193	1
194	9
195	45
196	6
197	3
199	2
200	11
201	37
202	121
203	398
204	51
205	4
206	0
207	1
208	3
209	25
210	15
211	2
212	1
213	4
214	1
215	1
216	3
217	15
218	1
219	0
224	0
227	3
228	2
229	10
230	10
231	10
232	8
233	1
236	0
237	2
240	0
241	0
242	0
243	3
244	7
245	64
246	226
247	33
248	3
