Mass Spectrum: Cyclohexanone, O-(diethylboryl)oxime
Formula: C10H20BNO
CAS: 74421-34-4
Molecular weight: 181
m/z	intensity
26	0
27	60
28	73
29	157
30	18
32	3
35	0
36	5
37	0
38	1
39	25
40	9
41	222
42	199
43	36
44	6
45	1
46	0
51	2
52	3
53	20
54	213
55	444
56	82
57	176
58	6
59	4
64	0
65	4
66	6
67	33
68	96
69	475
70	30
71	2
72	4
76	0
77	3
78	1
79	28
80	9
81	20
82	70
83	10
84	5
85	11
86	3
87	0
91	0
92	0
93	1
94	7
95	7
96	999
97	180
98	20
99	0
100	0
105	0
106	0
107	1
108	2
109	6
110	42
111	4
112	2
113	6
114	0
120	0
121	0
122	1
123	14
124	75
125	45
126	3
127	0
128	0
134	1
135	0
136	3
137	13
138	58
139	12
140	0
149	0
151	13
152	63
153	6
154	1
165	1
166	3
167	2
168	2
179	0
180	25
181	102
182	9
183	0
