Mass Spectrum: Rhodium, di-.mu.-chlorobis[(1,2,3,4-.eta.)-2-methyl-1,3-butadiene]di-
Formula: C10H16Cl2Rh2
CAS: 74436-26-3
Molecular weight: 412
m/z	intensity
26	60
27	341
28	43
29	33
30	0
31	28
32	8
33	7
34	2
35	33
36	310
37	39
38	97
39	495
40	329
41	318
42	185
43	10
44	0
45	1
48	2
49	15
50	72
51	96
52	44
53	646
54	29
55	13
56	0
57	1
58	0
60	4
61	18
62	28
63	37
64	6
65	99
66	58
67	999
68	736
69	42
70	4
71	1
73	0
74	0
75	0
76	0
77	4
78	2
79	3
80	1
81	1
82	1
83	0
84	0
87	1
89	1
91	5
92	3
93	7
94	2
95	1
101	0
102	11
103	9
104	5
105	3
106	0
107	1
108	0
109	0
115	1
117	2
118	1
119	2
120	0
121	3
129	1
130	0
132	2
133	0
134	0
136	1
140	0
141	1
142	3
143	3
144	2
145	0
154	0
155	1
156	0
166	0
167	0
168	12
169	4
170	3
171	7
172	0
206	2
207	1
208	0
218	15
219	2
220	0
230	1
231	2
232	4
233	1
239	1
241	5
242	0
243	4
244	7
245	8
246	6
253	1
254	0
255	1
256	1
257	1
258	0
267	0
268	1
269	3
270	34
271	7
272	54
273	4
276	2
278	1
280	1
282	1
283	0
284	1
295	0
296	1
304	0
305	0
306	2
307	1
308	6
309	0
310	3
320	0
323	1
332	3
333	0
334	5
335	1
336	11
337	4
338	17
339	2
340	42
341	4
342	1
343	0
344	0
346	1
348	1
368	0
370	3
371	0
372	9
373	1
374	11
375	2
376	23
377	3
378	7
379	0
412	49
413	5
414	31
415	3
416	5
