Mass Spectrum: Pentanoic acid, 2-hydroxy-, methyl ester
Formula: C6H12O3
CAS: 7445-76-3
Molecular weight: 132
m/z	intensity
31	366
33	243
34	3
37	0
38	5
39	111
40	17
41	217
42	29
43	666
44	151
45	98
46	5
50	3
51	3
52	0
53	26
54	11
55	999
56	55
57	93
58	18
59	53
60	4
61	46
62	3
68	1
69	5
70	1
71	34
72	36
73	643
74	39
75	12
76	3
81	1
82	1
83	4
84	3
85	5
87	3
88	0
89	24
90	67
91	1
100	1
103	3
114	1
