Mass Spectrum: Selenium(IV) oxide
Formula: O2Se
CAS: 7446-08-4
Molecular weight: 112
m/z	intensity
71	0
73	0
74	1
75	1
76	23
77	19
78	58
79	0
80	122
81	0
82	20
83	4
85	0
86	0
87	1
88	0
89	1
90	7
91	0
92	76
93	68
94	196
95	0
96	422
97	0
98	80
99	0
101	0
102	0
105	0
106	17
108	164
109	143
110	462
111	1
112	999
113	1
114	174
115	3
116	0
