Mass Spectrum: N,N-Diethyloctadecanamide
Formula: C22H45NO
CAS: 7446-68-6
Molecular weight: 339
m/z	intensity
26	0
27	11
28	3
29	71
30	12
31	0
39	10
40	2
41	133
42	46
43	232
44	101
45	3
46	4
47	0
48	0
52	1
53	5
54	8
55	137
56	42
57	116
58	349
59	13
61	0
64	0
65	1
66	1
67	15
68	7
69	63
70	20
71	54
72	182
73	92
74	70
75	2
76	0
77	0
78	0
79	3
80	2
81	10
82	4
83	24
84	9
85	16
86	65
87	64
88	4
89	1
90	1
91	1
93	2
94	1
95	9
96	2
97	12
98	8
99	3
100	257
101	20
102	2
105	0
106	0
107	1
108	0
109	4
110	2
111	4
112	4
113	2
114	13
115	999
116	140
117	6
118	0
119	0
120	0
121	1
122	0
123	1
124	0
125	1
126	3
127	1
128	349
129	56
130	5
131	0
135	0
136	0
137	0
138	0
139	0
140	1
141	0
142	69
143	13
144	1
145	0
149	3
150	0
154	1
155	0
156	21
157	11
158	1
165	0
166	0
167	0
168	1
169	0
170	34
171	8
172	0
181	0
182	0
183	0
184	24
185	5
186	0
196	0
197	0
198	19
199	4
200	0
210	0
211	0
212	12
213	3
214	0
224	0
225	0
226	13
227	3
228	0
238	0
239	0
240	11
241	2
242	0
252	0
253	0
254	11
255	2
256	0
266	0
267	3
268	10
269	2
270	0
280	0
281	0
282	10
283	3
284	0
294	0
295	0
296	11
297	3
298	0
308	0
309	0
310	14
311	4
312	0
322	0
323	0
324	6
325	1
326	0
336	0
337	0
338	44
339	94
340	24
341	3
342	0
