Mass Spectrum: Cyclopentanone, 3-(3-hydroxy-1-propenyl)-
Formula: C8H12O2
CAS: 74473-08-8
Molecular weight: 140
m/z	intensity
25	2
26	48
27	309
28	196
29	201
30	10
31	157
33	1
35	5
36	1
37	11
38	40
39	375
40	85
41	405
42	122
43	228
44	49
45	18
46	1
47	10
48	1
49	9
50	53
51	104
52	62
53	229
54	165
55	682
56	209
57	378
58	91
59	22
60	6
61	11
62	14
63	31
64	9
65	77
66	100
67	383
68	163
69	101
70	77
71	33
72	17
73	6
74	6
75	5
76	3
77	84
78	35
79	305
80	179
81	182
82	84
83	999
84	306
85	32
86	28
87	5
88	6
89	2
90	1
91	32
92	8
93	53
94	62
95	122
96	225
97	653
98	58
99	143
100	9
101	1
102	0
103	2
104	4
105	4
106	1
107	41
108	7
109	95
110	41
111	45
112	35
113	3
114	0
115	1
117	1
118	1
119	2
120	1
121	16
122	55
123	16
124	2
125	14
126	1
127	0
128	1
129	1
130	1
131	0
132	1
133	1
134	0
135	2
136	1
137	1
138	5
139	5
140	111
141	11
142	1
