Mass Spectrum: 3-Methylthio-6-methyl-5-thioxo-2,5-dihydro-1,2,4-triazine
Formula: C5H7N3S2
CAS: 7448-19-3
Molecular weight: 173
m/z	intensity
41	110
42	268
45	919
46	281
47	308
58	308
59	417
71	780
72	806
74	999
85	841
102	80
132	49
173	459
