Mass Spectrum: Diphenyl phthalane
Formula: C20H16O
CAS: 7449-50-5
Molecular weight: 272
m/z	intensity
51	59
63	40
77	219
78	29
89	30
99	59
105	999
106	80
139	50
152	99
163	49
164	60
165	511
166	131
167	248
168	40
177	59
178	60
193	119
194	700
195	298
196	39
271	171
272	361
273	70
