Mass Spectrum: 2,6-Octadiene, 4-methyl-
Formula: C9H16
CAS: 74498-94-5
Molecular weight: 124
m/z	intensity
22	0
26	4
27	98
28	10
29	81
30	1
31	0
36	1
37	6
38	6
39	119
40	19
41	780
42	33
43	15
44	0
45	0
47	0
49	0
50	5
51	16
52	7
53	52
54	15
55	111
56	6
57	0
61	0
62	1
63	3
64	0
65	13
66	7
67	68
68	91
69	999
70	54
71	1
74	0
75	1
77	13
78	2
79	10
80	2
81	11
82	14
83	2
89	0
91	7
92	1
93	5
94	2
95	39
96	4
105	0
107	0
109	30
110	2
111	0
124	8
125	0
