Mass Spectrum: Levoglucosan, 3TMS derivative
Formula: C15H34O5Si3
CAS: 7449-14-1
Molecular weight: 378
m/z	intensity
15	1
19	1
26	1
27	3
28	4
29	8
30	1
31	4
39	4
40	1
41	10
42	2
43	24
44	22
45	126
46	8
47	18
48	1
49	1
51	1
52	1
53	7
54	2
55	19
56	2
57	9
58	7
59	47
60	5
61	13
62	1
63	1
65	1
66	2
67	2
68	2
69	15
70	4
71	7
72	18
73	999
74	85
75	123
76	8
77	8
78	1
79	1
80	1
81	24
82	2
83	2
85	12
86	2
87	5
88	2
89	7
90	1
91	1
95	1
96	1
97	4
98	2
99	10
100	2
101	48
102	7
103	105
104	9
105	8
106	1
107	1
109	4
111	6
112	1
113	20
114	3
115	14
116	33
117	57
118	7
119	11
120	1
121	1
125	2
126	1
127	9
128	2
129	180
130	22
131	46
132	7
133	96
134	13
135	11
136	1
137	1
139	1
141	4
142	26
143	49
144	7
145	11
146	2
147	268
148	41
149	35
150	4
151	2
152	4
153	2
154	1
155	24
156	3
157	12
158	2
159	10
160	2
161	36
162	4
163	7
164	1
165	1
168	1
169	10
170	4
171	11
172	2
173	3
174	4
175	5
176	1
177	13
178	2
179	1
183	6
184	1
185	1
187	2
188	1
189	59
190	13
191	120
192	21
193	10
194	1
199	4
200	1
201	1
203	8
204	605
205	116
206	51
207	8
208	1
215	4
216	2
217	451
218	93
219	39
220	5
221	4
222	1
227	1
229	2
230	2
231	7
232	2
233	1
234	1
241	1
242	4
243	28
244	7
245	9
246	2
247	1
249	1
257	1
259	2
260	7
261	5
262	2
265	1
271	1
273	4
274	1
275	1
291	1
304	3
305	5
306	2
307	1
317	11
318	3
319	2
331	1
332	6
333	102
334	31
335	15
336	3
337	1
349	1
363	1
