Mass Spectrum: Phosphoric acid, 2,2-diethoxyethyl diphenyl ester
Formula: C18H23O6P
CAS: 74498-93-4
Molecular weight: 366
m/z	intensity
26	3
28	5
29	33
30	0
31	4
32	0
39	1
40	0
41	1
42	2
43	35
44	23
45	9
47	310
48	3
49	1
50	0
51	2
52	0
54	0
55	1
56	0
57	2
59	2
60	14
61	29
62	0
65	10
66	4
67	0
68	0
69	0
70	2
71	1
72	34
73	5
74	1
75	448
76	15
77	48
78	5
79	3
81	0
85	0
87	7
88	3
89	19
90	33
91	49
92	3
93	5
94	63
95	9
96	0
97	0
99	3
102	1
103	999
104	56
105	8
106	1
107	10
108	2
109	1
113	2
115	0
116	27
117	2
118	2
119	8
120	0
121	0
122	0
123	12
127	0
128	0
129	0
134	0
135	0
136	0
137	0
139	2
140	5
141	9
142	1
151	2
152	5
153	7
154	1
155	2
156	3
157	3
164	1
165	17
166	23
167	6
168	4
169	10
170	8
171	3
172	0
173	0
174	1
175	21
176	1
177	0
178	1
179	0
181	1
182	1
183	5
184	1
185	1
186	0
187	3
188	1
189	1
192	3
193	1
194	0
195	0
196	0
197	1
199	32
200	2
201	2
202	1
203	0
211	0
213	0
214	0
215	8
216	2
217	68
218	6
220	3
221	1
222	0
223	0
226	0
227	1
228	0
229	0
231	0
232	1
233	3
234	0
239	0
241	0
243	0
244	1
245	30
246	3
247	0
248	2
249	10
250	22
251	29
252	3
253	0
255	0
256	0
257	0
258	1
261	0
263	12
264	3
265	1
266	0
268	2
269	1
271	0
272	2
273	401
274	53
275	11
276	1
277	5
278	1
279	1
290	0
291	1
292	7
293	64
294	10
295	1
296	0
297	0
299	2
309	0
310	0
320	1
321	154
322	28
323	3
324	0
325	0
326	1
337	2
338	0
365	0
366	2
