Mass Spectrum: 1,3,2-Dioxaborinane, 2-ethyl-4,5-dimethyl-6-phenyl-
Formula: C13H19BO2
CAS: 74498-92-3
Molecular weight: 218
m/z	intensity
27	9
28	33
29	28
32	1
39	12
40	6
41	95
42	3
43	32
44	4
45	9
49	0
50	3
51	6
52	2
53	4
54	5
55	44
56	999
57	88
58	3
63	1
64	1
65	7
66	1
67	2
68	1
69	3
70	1
71	8
72	1
73	22
74	1
76	1
77	44
78	17
79	86
80	5
81	0
82	1
83	3
84	2
85	2
89	11
90	23
91	169
92	14
97	1
98	1
99	3
101	2
102	3
103	14
104	8
105	96
106	13
107	915
108	69
109	4
111	2
112	9
113	2
114	0
115	43
116	17
117	135
118	152
119	43
120	3
124	3
125	11
126	9
127	37
128	7
129	9
130	3
131	7
132	7
133	20
134	4
135	0
138	1
139	17
140	51
141	5
142	1
143	2
144	5
145	17
146	13
147	8
148	0
149	1
159	2
160	5
161	8
162	13
163	36
164	5
173	1
174	0
187	1
188	93
189	365
190	43
191	4
201	1
202	2
203	8
204	1
216	3
217	63
218	202
219	29
