Mass Spectrum: 2,5-Dimethyl-2-vinyl-4-hexen-1-ol, TMS derivative
Formula: C13H26OSi
CAS: 74498-95-6
Molecular weight: 226
m/z	intensity
26	6
27	6
28	8
29	8
30	0
31	0
34	1
38	0
39	6
40	3
41	89
42	5
43	23
44	4
45	22
46	1
47	8
48	0
49	0
50	1
51	0
53	13
54	2
55	22
56	2
57	6
58	8
59	23
60	2
61	10
62	0
63	0
64	0
65	3
66	2
67	37
68	43
69	151
70	12
71	3
72	13
73	999
74	84
75	193
76	11
77	13
78	3
79	24
80	154
81	45
82	8
83	5
84	1
85	6
86	0
87	3
88	3
89	6
90	0
91	15
92	72
93	256
94	41
95	25
96	4
97	4
98	0
99	6
100	0
101	6
102	1
103	194
104	18
105	15
106	3
107	49
108	16
109	6
110	3
111	3
112	0
113	11
114	1
115	20
116	5
117	4
118	0
119	2
120	1
121	173
122	21
123	20
124	2
125	3
126	1
127	10
128	1
129	11
130	3
131	1
132	0
133	0
134	0
135	14
136	118
137	14
138	0
139	1
140	0
141	11
142	2
143	54
144	17
145	5
146	0
147	0
151	1
152	0
153	1
154	0
155	6
156	49
157	240
158	42
159	11
160	1
165	0
167	0
168	0
169	13
170	4
171	2
172	0
181	0
183	4
184	1
185	4
186	0
191	0
193	3
194	0
195	0
196	0
197	0
198	0
199	0
211	12
212	2
213	0
226	4
227	0
