Mass Spectrum: N-Methylacetamide, TMS derivative
Formula: C6H15NOSi
CAS: 7449-74-3
Molecular weight: 145
m/z	intensity
15	13
26	2
27	8
29	16
30	7
31	7
39	1
41	6
42	26
43	123
44	21
45	96
46	8
47	22
53	8
54	30
55	55
56	83
57	4
58	26
59	64
60	10
61	20
62	1
67	2
68	2
69	3
70	17
71	8
72	44
73	360
74	43
75	213
76	17
77	10
85	1
86	6
87	4
88	28
89	15
90	3
99	2
101	16
102	40
103	4
104	2
112	15
113	2
114	4
115	6
116	8
130	999
131	110
132	41
133	2
145	242
146	31
147	7
148	2
