Mass Spectrum: 1H-Pyrrole-2,5-dione, 1-[(acetyloxy)methyl]-
Formula: C7H7NO4
CAS: 7450-68-2
Molecular weight: 169
m/z	intensity
25	20
26	240
27	40
28	330
29	80
30	30
31	10
32	20
39	20
40	20
41	20
42	60
43	450
44	50
45	30
52	20
53	90
54	290
55	80
56	80
60	20
69	30
70	20
80	70
82	220
83	20
97	110
98	50
99	140
100	100
110	999
111	70
112	10
126	20
127	430
128	40
