Mass Spectrum: 1-[4-Aminobenzyl]hypoxanthine
Formula: C12H11N5O
CAS: 74539-07-4
Molecular weight: 241
m/z	intensity
51	4
52	9
53	25
54	10
65	12
66	9
67	5
77	58
78	27
79	19
80	8
93	8
104	39
106	999
107	65
119	10
120	18
121	4
131	9
241	197
242	29
