Mass Spectrum: 2-(4-Chlorophenyl)quinazolin-4-ol
Formula: C14H9ClN2O
CAS: 7455-77-8
Molecular weight: 256
m/z	intensity
33	8
34	7
35	2
36	9
37	10
38	23
39	55
40	10
41	11
42	3
43	8
44	57
45	3
50	95
51	40
52	21
53	7
54	1
55	3
56	1
57	3
60	2
61	7
62	20
63	74
64	71
65	21
66	3
67	1
68	1
69	10
71	2
72	1
73	11
74	33
75	100
76	86
77	25
78	2
81	0
82	13
83	7
84	1
85	8
86	4
87	8
88	6
89	13
90	105
91	44
92	130
93	9
97	48
98	1
99	4
100	8
101	12
102	67
103	11
104	3
109	2
110	13
111	89
112	10
113	32
114	22
116	9
117	11
119	999
120	86
121	5
123	0
124	1
125	2
126	1
128	66
129	23
130	1
136	1
137	15
138	64
139	50
140	27
141	12
142	0
144	2
145	14
146	1
147	6
149	2
150	3
151	15
152	4
153	1
163	1
164	6
165	4
166	8
167	2
176	3
177	15
178	25
179	3
186	1
191	3
192	15
193	8
194	4
200	3
201	1
202	2
203	1
212	1
213	9
214	2
215	3
220	7
221	6
227	4
228	11
229	5
230	4
239	17
240	2
241	5
242	1
255	21
256	536
257	90
258	168
259	25
260	2
