Mass Spectrum: Furane-2-carboxylic acid, 5-[4-(1,1-dimethylethyl)phenoxymethyl]-
Formula: C16H18O4
CAS: 74556-54-0
Molecular weight: 274
m/z	intensity
33	0
34	1
36	3
37	2
38	9
39	42
40	20
41	59
42	5
43	9
44	14
45	11
46	0
47	0
49	1
50	14
51	47
52	55
53	37
54	4
55	16
57	18
58	0
60	1
61	1
62	3
63	13
64	5
65	22
66	6
67	3
68	2
69	19
70	1
71	1
72	0
73	1
74	1
75	2
76	3
77	34
78	17
79	111
80	18
81	46
82	2
83	0
84	0
85	0
86	0
87	0
88	0
89	4
91	60
92	6
93	5
94	3
95	11
97	39
98	2
99	0
100	0
101	1
102	2
103	8
104	2
105	16
106	14
107	32
108	5
109	13
110	1
111	0
112	0
113	0
115	8
116	2
117	4
118	4
119	7
120	3
121	14
125	999
126	56
127	9
128	1
129	1
130	1
131	2
133	5
134	8
135	65
136	5
137	0
139	2
140	1
141	0
142	0
143	0
144	0
145	1
146	0
147	1
148	0
149	4
150	10
151	1
152	0
153	0
155	0
156	0
157	0
158	0
159	0
161	0
163	0
165	0
166	0
169	0
170	0
171	1
172	1
173	5
174	1
175	0
181	1
182	0
183	0
184	0
185	0
186	0
187	0
200	2
201	0
209	0
211	0
213	0
214	0
215	0
217	4
218	9
219	1
226	1
227	0
228	0
229	0
230	0
231	0
241	0
245	0
254	0
256	0
257	0
259	4
260	0
271	0
272	0
274	51
275	8
276	1
