Mass Spectrum: Furane-2-carboxylic acid, 5-(3-chlorophenoxymethyl)-
Formula: C12H9ClO4
CAS: 74556-56-2
Molecular weight: 252
m/z	intensity
33	0
34	1
35	3
36	13
37	13
38	34
39	52
40	24
41	26
42	7
43	11
44	19
45	25
47	2
49	7
50	38
51	80
52	87
53	40
54	4
55	10
56	1
57	2
58	0
59	0
60	3
61	7
62	18
63	57
64	31
65	28
66	5
67	2
68	3
69	32
70	2
71	2
72	3
73	31
74	10
75	33
76	5
77	18
79	164
80	28
81	8
82	1
83	1
84	1
85	4
86	1
87	2
89	13
90	8
91	5
92	6
93	3
94	2
95	3
97	69
99	48
100	8
101	14
102	3
103	2
104	0
105	2
106	0
107	3
108	4
109	3
110	1
111	14
113	7
114	1
115	5
116	1
117	1
118	3
119	1
120	0
121	2
125	999
126	53
127	17
128	48
130	20
131	0
133	1
135	129
136	10
137	1
139	3
140	0
141	1
142	0
143	0
144	2
145	0
146	0
147	0
149	4
150	1
151	1
152	1
153	0
154	0
155	0
157	0
159	0
162	0
165	1
166	2
167	0
168	0
171	1
172	0
176	0
179	0
180	0
181	0
182	0
188	0
205	0
206	0
207	1
208	0
211	0
215	0
216	0
217	7
218	1
219	0
228	0
234	0
235	0
236	0
237	0
238	0
250	0
252	39
253	5
254	13
255	1
256	0
