Mass Spectrum: Milbemycin b, 5-O-demethyl-28-deoxy-6,28-epoxy-13-hydroxy-25-(1-methylethyl)-, (6R,13s,25R)-
Formula: C33H48O8
CAS: 74567-04-7
Molecular weight: 572
m/z	intensity
26	12
27	85
28	25
29	173
30	19
31	32
36	17
38	10
39	99
40	29
41	592
42	69
43	628
44	66
45	78
46	9
50	20
51	26
52	18
53	135
54	77
55	999
56	118
57	207
58	35
59	171
60	30
61	10
63	12
64	11
65	64
66	45
67	421
68	74
69	504
70	63
71	155
72	23
73	55
74	12
75	12
76	9
77	176
78	43
79	379
80	66
81	409
82	119
83	452
84	152
85	122
86	23
87	22
89	12
91	168
92	57
93	381
94	254
95	974
96	234
97	610
98	52
99	47
100	18
101	48
103	22
104	15
105	159
106	37
107	169
108	74
109	259
110	97
111	233
112	37
113	107
114	18
115	42
116	16
117	39
118	17
119	100
120	71
121	188
122	80
123	201
124	44
125	63
126	19
127	32
128	30
129	39
130	17
131	38
132	18
133	103
134	34
135	107
136	44
137	769
138	91
139	252
140	37
141	32
142	15
143	27
144	16
145	41
146	17
147	50
148	16
149	45
150	57
151	393
152	360
153	64
154	30
155	41
156	13
157	346
158	41
159	45
160	16
161	34
162	14
163	90
164	19
165	34
166	13
167	17
168	11
169	16
170	12
171	25
172	16
173	25
174	12
175	20
176	10
177	16
178	32
179	473
180	74
181	467
182	61
183	20
184	10
185	20
186	12
187	26
188	12
189	19
190	10
191	79
192	21
193	13
194	10
195	11
196	14
197	18
198	17
199	87
200	25
201	16
202	12
203	15
205	11
206	11
207	15
208	11
209	200
210	39
211	17
214	7
215	29
216	22
217	38
218	14
219	13
220	15
221	150
222	30
223	10
225	17
226	23
227	19
228	7
229	11
231	9
232	6
233	10
234	6
235	7
236	7
237	10
238	15
239	9
240	5
241	6
242	14
243	35
244	26
245	19
246	6
247	5
248	4
249	55
250	14
251	7
257	7
258	7
259	8
260	7
261	97
262	46
263	14
264	10
265	5
266	3
267	4
268	6
275	52
276	14
277	10
278	10
279	9
280	7
291	12
293	703
294	179
295	24
296	12
303	3
309	5
310	10
311	6
320	9
321	5
330	9
337	8
348	50
349	11
372	8
381	7
383	2
400	5
403	3
409	1
420	1
422	6
426	15
430	6
434	3
484	14
485	6
486	31
487	10
488	2
489	8
490	8
491	3
492	2
493	4
500	4
510	0
518	3
521	6
525	6
529	11
530	14
536	38
537	17
538	6
554	82
555	33
556	10
572	38
573	16
574	6
