Mass Spectrum: Ruthenium, (.eta.5-2,4-cyclopentadien-1-yl)(2-methyl-2-propenyl)bis(trimethylphosphine)-
Formula: C15H30P2Ru
CAS: 74573-19-6
Molecular weight: 374
m/z	intensity
26	64
27	152
28	102
29	72
30	0
31	2
32	8
33	9
34	6
35	5
37	5
38	16
39	168
40	52
41	294
42	16
43	5
44	45
45	338
46	66
47	119
48	13
49	13
50	14
51	17
52	9
53	26
54	25
55	85
56	110
57	227
58	97
59	659
60	61
61	999
62	25
63	3
65	7
66	10
67	2
69	3
70	2
71	1
72	1
73	45
74	7
75	179
76	701
77	70
78	5
79	1
81	0
85	0
91	7
92	14
95	0
100	1
101	0
102	0
105	1
118	0
128	0
129	0
130	1
131	18
132	2
133	1
137	0
138	0
139	0
140	2
141	3
142	0
143	4
144	5
145	7
146	11
147	4
148	6
149	2
152	0
153	3
155	4
156	5
157	5
158	8
159	11
160	7
161	34
162	5
163	13
164	58
165	56
166	74
167	135
168	10
169	74
170	8
171	4
172	5
173	5
174	4
175	7
176	7
177	8
178	5
179	10
180	8
181	7
182	6
183	10
184	10
185	14
186	9
187	11
188	8
189	8
190	10
191	16
192	17
193	14
194	20
195	11
196	20
197	15
198	20
199	10
200	14
201	13
202	7
203	20
204	14
205	57
206	31
207	30
208	97
209	108
210	121
211	207
212	38
213	121
214	31
215	22
216	61
217	48
218	72
219	125
220	163
221	170
222	292
223	70
224	187
225	38
226	44
227	17
228	10
229	16
230	11
231	24
232	24
233	32
234	43
235	71
236	98
237	171
238	142
239	250
240	202
241	330
242	178
243	302
244	50
245	125
246	13
247	3
248	4
249	4
250	5
251	5
252	3
253	4
254	2
255	4
256	3
257	6
258	5
259	8
260	3
261	6
262	5
263	4
264	5
265	4
266	3
267	4
268	3
269	3
270	5
271	4
272	4
273	3
274	3
275	4
276	5
277	7
278	6
279	8
280	7
281	11
282	6
283	9
284	7
285	8
286	7
287	9
288	3
289	6
290	4
291	4
292	52
293	13
294	22
295	124
296	129
297	172
298	300
299	45
300	171
301	26
302	8
303	11
304	5
305	6
306	2
307	2
311	0
312	4
313	60
314	10
315	29
316	152
317	173
318	231
319	382
320	58
321	213
322	31
323	2
324	4
326	1
