Mass Spectrum: Acetamide, 2-chloro-, N-(2-propynyl)-
Formula: C5H6ClNO
CAS: 7458-03-9
Molecular weight: 131
m/z	intensity
33	0
35	8
36	20
37	52
38	114
39	941
40	65
41	55
42	142
43	29
44	27
45	0
47	9
48	26
49	213
50	20
51	113
52	136
53	87
54	229
55	195
56	27
57	2
60	0
61	1
62	6
63	1
64	4
65	1
66	4
67	15
68	29
69	3
70	0
73	4
74	0
75	3
76	22
77	53
78	22
79	18
80	4
82	496
83	23
84	2
87	0
88	0
89	0
90	2
93	0
96	999
97	48
98	3
99	0
102	2
130	2
131	19
132	1
133	6
