Mass Spectrum: 5-O-Carbomethoxy-1,2,O-isopropylidene-3-O-(p-tolylsulfonyl)-D-xylofuranose
Formula: C17H22O9S
CAS: 74580-94-2
Molecular weight: 402
m/z	intensity
41	173
43	999
44	23
45	133
46	2
47	2
49	5
50	11
51	29
52	17
53	21
54	5
55	106
56	8
57	30
59	339
60	23
61	20
62	7
63	33
64	5
65	151
66	7
67	12
68	34
69	143
70	12
71	72
73	38
74	2
75	5
76	1
77	39
78	8
79	24
80	8
81	50
82	3
83	15
84	8
85	86
86	9
87	31
88	1
89	55
90	59
91	630
92	48
93	3
95	10
96	32
97	468
98	31
99	38
100	17
101	7
103	3
104	2
105	10
106	8
107	24
108	13
109	11
110	0
111	18
113	54
114	5
115	6
117	5
119	18
120	0
121	3
122	2
123	13
125	5
126	15
127	4
128	2
129	39
131	181
132	12
133	8
134	1
135	1
137	8
139	502
140	38
141	30
142	2
143	3
145	1
147	2
149	2
151	0
153	6
154	7
155	370
156	31
157	23
158	2
159	2
161	5
164	0
171	7
172	29
173	75
174	7
175	2
176	2
185	2
187	9
189	6
193	2
199	2
201	0
203	2
211	1
213	26
214	9
215	12
216	1
227	3
229	1
231	2
233	5
239	1
251	23
252	2
255	8
262	2
268	4
269	22
270	2
273	2
297	23
298	3
299	0
313	14
314	2
326	1
327	5
344	1
345	23
346	4
347	2
385	4
386	3
387	160
388	24
389	10
390	2
402	6
