Mass Spectrum: Thieno[3,2-d]isothiazole, 3,4-dimethyl-
Formula: C7H7NS2
CAS: 74598-01-9
Molecular weight: 169
m/z	intensity
33	8
34	11
35	1
36	10
37	60
38	98
39	479
40	42
41	25
42	40
43	5
44	37
45	387
46	42
47	28
48	7
49	20
50	60
51	103
52	70
53	22
54	7
55	2
56	17
57	35
58	49
59	73
60	10
61	19
62	28
63	48
64	41
65	25
66	47
67	58
68	39
69	212
70	75
71	60
72	18
73	12
74	9
75	11
76	32
77	19
78	29
79	9
80	23
81	80
82	152
83	999
84	202
85	86
86	10
87	4
88	48
89	6
90	8
91	5
92	29
93	113
94	28
95	39
96	30
97	39
98	18
99	5
100	12
101	8
102	4
103	2
104	3
105	7
106	3
107	4
108	9
109	18
110	60
111	11
112	12
113	4
114	3
115	1
116	1
117	0
118	0
119	0
120	2
121	2
122	9
123	8
124	20
125	8
126	4
127	39
128	65
129	14
130	6
131	1
133	0
134	1
135	3
136	30
137	4
138	1
139	1
140	4
141	15
142	4
143	1
144	0
149	0
152	2
153	2
154	17
155	1
156	1
157	0
168	180
169	263
170	33
171	21
172	2
173	0
