Mass Spectrum: cis-13-Docosenoyl chloride
Formula: C22H41ClO
CAS: 7459-29-2
Molecular weight: 356
m/z	intensity
15	7
17	1
18	3
26	4
27	120
28	28
29	275
30	7
31	1
35	24
36	217
37	9
38	70
39	91
40	20
41	725
42	121
43	564
44	19
45	3
48	1
49	2
50	1
51	5
52	5
53	65
54	246
55	999
56	243
57	394
58	21
59	9
60	4
61	2
62	1
63	8
64	1
65	14
66	27
67	393
68	220
69	602
70	181
71	125
72	9
73	5
74	31
75	7
76	1
77	18
78	15
79	82
80	114
81	354
82	346
83	488
84	193
85	71
86	6
87	20
88	2
89	2
90	2
91	24
92	11
93	56
94	72
95	283
96	341
97	335
98	558
99	60
100	8
101	6
102	2
103	1
104	3
105	12
106	8
107	39
108	53
109	173
110	182
111	187
112	140
113	24
114	6
115	6
116	2
117	3
118	2
119	15
120	9
121	65
122	46
123	103
124	129
125	80
126	32
127	12
128	6
129	5
130	3
131	2
132	2
133	16
134	20
135	57
136	33
137	83
138	95
139	38
140	16
141	16
142	3
143	6
144	2
145	2
146	1
147	16
148	21
149	31
150	17
151	54
152	75
153	24
154	14
155	11
156	3
157	3
158	1
159	2
160	1
161	13
162	13
163	15
164	10
165	37
166	54
167	18
168	10
169	5
170	2
171	3
172	1
173	2
174	1
175	13
176	9
177	9
178	8
179	27
180	34
181	13
182	11
183	3
184	1
185	2
186	1
187	1
188	1
189	8
190	4
191	6
192	9
193	30
194	38
195	15
196	13
197	5
198	1
199	3
200	1
202	1
203	4
204	2
205	3
206	9
207	49
208	67
209	18
210	9
211	4
212	1
213	2
214	1
216	1
217	3
218	2
219	5
220	8
221	71
222	88
223	23
224	9
225	5
226	1
227	1
228	1
230	1
231	1
232	2
233	4
234	4
235	51
236	51
237	15
238	8
239	4
240	1
241	2
242	1
245	2
246	1
247	2
248	2
249	37
250	26
251	8
252	4
253	2
255	2
256	2
259	3
260	2
261	2
262	3
263	31
264	22
265	9
266	4
267	2
269	1
270	1
273	1
274	1
275	1
276	5
277	23
278	15
279	6
280	2
281	1
285	1
287	1
288	1
289	1
290	2
291	15
292	39
293	15
294	5
295	2
296	2
297	1
298	3
299	1
300	1
301	2
302	10
303	3
304	2
305	3
306	3
307	1
310	1
312	1
315	1
316	1
318	4
319	10
320	474
321	225
322	44
323	7
324	1
351	1
352	8
353	3
354	4
355	1
356	4
357	1
358	1
