Mass Spectrum: 5,7-Dodecadiyn-1,12-diol
Formula: C12H18O2
CAS: 74602-32-7
Molecular weight: 194
m/z	intensity
14	16
15	43
16	11
17	3
18	4
19	24
26	23
27	213
28	131
29	297
30	10
31	816
32	15
38	30
39	306
40	56
41	381
42	69
43	181
44	27
45	27
50	162
51	286
52	96
53	132
54	51
55	386
56	47
57	276
58	10
59	5
61	8
62	70
63	284
64	73
65	321
66	119
67	278
68	78
69	95
70	42
71	65
74	49
75	157
76	170
77	542
78	339
79	615
80	133
81	166
82	49
83	78
84	51
85	48
86	12
87	33
88	22
89	151
90	20
91	999
92	190
93	140
94	98
95	147
96	53
97	51
98	77
99	12
101	22
102	96
103	163
104	91
105	272
106	70
107	210
108	65
109	109
110	35
111	42
115	353
116	98
117	187
118	52
119	74
120	79
121	84
122	32
123	48
124	136
125	37
126	32
127	44
128	127
129	79
130	40
131	32
132	21
133	36
134	33
135	114
136	35
137	98
138	15
141	8
142	19
145	3
147	35
148	47
149	17
150	2
151	17
159	1
161	10
163	43
164	1
165	16
166	4
175	14
177	1
179	17
193	17
194	5
