Mass Spectrum: cis-2-Nitro-4-t-butylcyclohexanone
Formula: C10H17NO3
CAS: 74609-73-7
Molecular weight: 199
m/z	intensity
55	295
57	999
69	185
123	33
124	30
125	68
139	13
151	6
152	7
153	10
199	19
