Mass Spectrum: Pivalic acid, 2-tetrahydrofurylmethyl ester
Formula: C10H18O3
CAS: 7461-07-6
Molecular weight: 186
m/z	intensity
26	4
27	18
28	7
29	31
30	2
31	4
36	4
38	2
39	24
40	6
41	75
42	20
43	87
44	5
45	1
50	2
51	4
52	3
53	5
54	6
55	21
56	15
57	140
58	7
59	1
63	1
65	4
67	8
68	3
69	23
70	29
71	999
72	39
73	3
77	4
78	4
79	6
81	1
82	2
83	7
84	175
85	49
86	3
87	1
89	1
91	24
92	13
93	2
100	2
101	8
102	1
103	7
104	2
105	4
115	2
117	24
118	17
119	2
136	6
