Mass Spectrum: 2-Octene, 4-ethyl-, (E)-
Formula: C10H20
CAS: 74630-09-4
Molecular weight: 140
m/z	intensity
22	2
27	63
29	93
30	3
31	1
32	3
34	1
37	13
38	5
39	83
40	1
41	274
42	31
44	1
47	2
48	1
49	2
50	7
51	10
52	4
53	40
54	27
55	999
56	41
57	13
58	0
62	1
63	4
65	13
66	2
67	71
68	25
69	573
70	270
71	25
72	1
77	4
78	2
79	9
80	2
81	20
82	26
83	283
84	52
91	2
95	3
96	6
97	23
98	156
99	23
109	0
110	4
111	71
112	2
113	1
140	73
141	10
