Mass Spectrum: Bis(diphenylmethyl)formaldazineoxide
Formula: C26H20N2O
CAS: 7463-87-8
Molecular weight: 376
m/z	intensity
26	3
27	27
28	31
29	1
30	5
31	0
32	1
33	2
34	2
37	2
38	7
39	44
40	2
41	2
42	0
43	2
44	3
45	0
49	2
50	64
51	332
52	26
53	4
54	0
55	3
56	1
57	2
61	3
62	14
63	39
64	9
65	24
66	3
67	1
68	0
69	3
70	2
71	1
73	3
74	22
75	25
76	59
77	999
78	84
79	5
80	1
81	5
82	21
83	15
85	2
86	7
87	11
88	8
89	17
90	5
91	8
92	3
93	5
94	3
95	1
97	0
98	4
99	4
100	2
101	3
102	9
103	15
104	56
105	480
106	36
107	3
109	1
110	1
111	2
112	1
113	12
114	5
115	34
116	4
117	0
118	0
119	4
120	1
121	1
122	0
123	0
125	1
126	10
127	8
128	5
129	1
130	1
131	0
133	0
134	1
135	1
136	0
137	4
138	4
139	46
140	8
141	6
142	2
143	1
149	4
150	4
151	16
152	35
153	20
154	14
155	2
156	2
157	2
158	3
159	1
160	0
161	1
162	4
163	48
164	89
165	925
166	835
167	141
168	55
169	8
170	0
171	0
173	1
174	2
176	1
177	5
178	17
179	17
180	370
181	109
182	201
183	28
184	2
185	0
186	9
187	1
188	2
189	0
190	1
191	0
192	0
193	1
194	13
195	15
196	86
197	27
198	3
202	1
203	1
204	0
205	11
206	2
207	0
209	6
210	1
215	1
216	1
217	5
218	1
219	0
221	0
222	0
223	0
226	0
227	0
228	1
229	0
230	0
231	1
239	2
240	1
241	2
242	1
243	4
244	5
245	1
252	1
253	1
254	3
255	1
256	18
257	28
258	5
259	0
262	0
266	0
267	1
268	1
269	3
270	1
271	3
272	1
273	0
281	2
282	1
283	100
284	22
285	2
299	4
300	1
317	0
330	1
332	0
343	0
344	1
345	1
346	18
347	9
348	3
349	0
357	0
358	1
359	30
360	62
361	16
362	2
372	1
375	2
376	52
377	14
378	2
