Mass Spectrum: 2-Undecene, 3-methyl-, (E)-
Formula: C12H24
CAS: 74630-47-0
Molecular weight: 168
m/z	intensity
24	2
25	0
27	72
28	21
29	113
30	2
32	0
34	0
35	0
36	2
37	6
38	3
39	55
40	16
41	386
42	128
43	155
45	0
47	0
48	0
49	0
51	8
52	5
53	31
54	15
55	475
56	151
57	140
58	6
59	1
63	3
64	2
65	10
66	2
67	46
68	27
69	298
70	999
71	203
72	7
73	1
74	2
75	0
77	5
78	1
79	9
80	0
81	13
82	9
83	161
84	25
85	5
89	0
91	1
92	2
93	1
95	3
97	42
98	20
105	1
109	1
111	5
112	4
113	1
114	1
115	0
116	0
121	1
123	1
125	0
128	2
129	0
133	0
138	7
139	26
140	7
141	0
142	0
153	1
163	0
167	0
168	61
169	6
