Mass Spectrum: Phosphinous chloride, cyclohexyl(1,7,7-trimethylbicyclo[2.2.1]hept-2-yl)-
Formula: C16H28ClP
CAS: 74630-28-7
Molecular weight: 286
m/z	intensity
27	128
28	61
29	112
35	11
36	57
37	2
38	21
39	126
40	188
41	415
42	26
43	149
44	129
45	11
47	3
48	3
50	10
51	26
52	13
53	100
54	40
55	277
56	18
57	78
58	8
59	6
61	5
63	6
64	2
65	29
66	25
67	274
68	47
69	224
70	17
71	48
73	8
74	4
75	7
76	3
77	90
78	35
79	144
80	49
81	999
82	116
83	172
84	17
85	16
86	2
87	4
89	4
90	3
91	89
92	52
93	213
94	42
95	409
96	35
97	22
99	12
101	6
103	7
105	22
106	9
107	64
108	41
109	75
110	43
111	17
112	6
113	16
114	10
115	10
116	3
117	4
118	2
119	11
120	8
121	97
122	38
123	25
124	6
125	8
127	3
129	2
131	4
132	4
133	5
134	4
135	26
136	109
137	623
138	64
139	9
147	4
148	6
149	13
150	25
151	22
152	4
153	6
157	2
159	5
161	8
162	3
163	8
164	12
166	4
167	7
168	9
169	5
170	4
175	4
176	5
177	22
178	5
179	10
188	3
189	20
190	8
191	8
192	7
199	2
200	5
201	2
202	5
203	10
204	84
205	52
206	29
207	13
215	3
216	4
217	2
219	4
223	5
225	2
231	15
232	6
235	3
237	10
238	3
243	3
250	6
251	5
253	4
257	2
259	14
271	207
272	35
273	67
274	27
286	80
287	12
288	25
