Mass Spectrum: [1,4]Dithian-2-one
Formula: C4H6OS2
CAS: 74637-14-2
Molecular weight: 134
m/z	intensity
25	9
26	86
27	221
29	13
30	5
31	2
33	37
34	31
35	24
36	3
38	2
39	18
40	3
41	76
42	160
43	26
44	55
45	861
46	999
47	203
48	57
49	12
50	3
55	3
56	15
57	105
58	253
59	400
60	716
61	230
62	42
63	12
64	265
65	8
66	26
69	5
70	5
71	6
72	8
73	89
74	39
75	8
76	18
77	20
78	605
79	21
80	54
86	9
88	6
89	2
90	5
91	4
92	655
93	28
94	62
105	101
106	525
107	35
108	48
120	8
134	880
135	57
136	92
137	5
