Mass Spectrum: Phosphonic acid, (1-methylethyl)-, bis[5-methyl-2-(1-methylethyl)cyclohexyl] ester
Formula: C23H45O3P
CAS: 74630-11-8
Molecular weight: 400
m/z	intensity
27	9
28	15
29	6
32	0
36	0
38	1
39	10
40	3
41	41
42	7
43	31
44	2
45	1
47	0
49	0
50	0
51	0
52	1
53	7
54	6
55	67
56	7
57	42
58	1
59	0
62	1
64	0
65	4
66	2
67	52
68	16
69	52
70	4
71	10
72	0
73	0
74	0
75	0
76	0
77	6
78	2
79	15
80	11
81	128
82	37
83	127
84	9
85	2
91	4
92	1
93	8
94	18
95	151
96	35
97	21
98	1
99	121
101	0
105	2
107	4
108	1
109	21
110	5
111	1
112	0
113	1
118	0
121	2
122	1
123	43
124	14
125	999
126	36
127	7
128	0
133	0
135	0
136	2
137	23
138	87
139	92
140	8
141	113
142	4
143	1
147	0
149	3
150	1
151	5
152	0
153	0
155	1
163	0
165	0
167	2
177	3
178	0
183	2
191	0
193	0
205	0
217	0
218	0
219	6
220	2
221	2
222	0
231	0
235	0
236	0
237	2
247	2
261	1
262	2
263	23
264	3
265	0
279	2
280	0
287	0
303	0
375	0
