Mass Spectrum: 5-Undecene, 7-methyl-, (Z)-
Formula: C12H24
CAS: 74630-62-9
Molecular weight: 168
m/z	intensity
24	2
25	2
26	7
27	137
28	35
29	152
30	1
32	1
33	0
34	0
35	1
36	1
37	3
38	4
39	76
40	12
41	350
42	52
43	236
44	9
45	0
47	1
48	0
50	1
51	9
52	4
53	48
54	27
55	917
56	421
57	214
58	7
60	2
63	1
64	0
65	12
66	10
67	65
68	52
69	999
70	217
71	22
72	2
75	0
76	1
77	6
78	5
79	13
80	1
81	36
82	14
83	98
84	86
85	23
86	1
91	3
93	2
94	0
95	6
96	0
97	35
98	37
99	9
109	4
110	13
111	160
112	27
113	1
117	0
123	1
125	1
126	22
127	2
140	2
167	1
168	40
169	2
