Mass Spectrum: 3-Undecene, 7-methyl-, (Z)-
Formula: C12H24
CAS: 74630-49-2
Molecular weight: 168
m/z	intensity
23	0
25	1
26	4
27	153
28	12
29	213
30	2
33	1
35	0
36	0
37	4
38	4
39	119
40	21
41	683
42	114
43	907
50	3
51	10
52	3
53	51
54	39
55	534
56	999
57	715
58	27
63	1
64	0
65	13
66	5
67	88
68	48
69	664
70	405
71	55
72	2
73	1
77	9
78	0
79	11
81	24
82	21
83	168
84	146
85	82
86	4
91	0
93	2
95	7
96	1
97	37
98	71
99	27
100	0
109	1
110	22
111	163
112	24
115	0
124	0
125	0
126	31
127	3
139	0
140	4
168	35
169	3
