Mass Spectrum: 2-Undecene, 9-methyl-, (E)-
Formula: C12H24
CAS: 74630-46-9
Molecular weight: 168
m/z	intensity
24	1
25	2
26	8
27	115
28	5
29	307
30	5
32	2
33	0
34	0
35	1
37	2
38	3
39	112
40	20
41	490
42	105
43	454
44	3
45	1
46	0
47	1
48	0
50	3
51	7
52	3
53	52
54	54
55	966
56	369
57	599
58	22
63	0
65	10
66	6
67	69
68	51
69	437
70	999
71	290
72	12
73	0
77	6
78	2
79	7
80	3
81	33
82	38
83	529
84	104
85	16
91	1
93	0
94	0
95	9
96	14
97	198
98	43
99	3
109	2
110	5
111	24
112	13
113	1
115	3
123	0
125	1
126	1
132	0
137	0
138	10
139	68
140	17
141	0
153	0
167	2
168	37
169	2
