Mass Spectrum: 2-Decene, 8-methyl-, (Z)-
Formula: C11H22
CAS: 74630-25-4
Molecular weight: 154
m/z	intensity
24	5
25	7
26	15
27	170
28	174
29	415
30	10
32	24
33	1
35	2
36	5
37	11
38	7
39	186
40	25
41	660
42	137
43	497
44	29
45	4
46	0
47	1
49	1
50	2
51	13
52	5
53	69
54	59
55	999
56	437
57	732
58	29
59	2
62	0
63	1
64	2
65	12
66	9
67	76
68	49
69	648
70	920
71	200
72	8
77	9
78	4
79	11
80	1
81	24
82	27
83	453
84	94
85	16
91	2
93	4
95	8
96	9
97	62
98	25
99	2
100	0
105	1
109	1
111	3
112	5
119	0
121	0
124	10
125	117
126	19
139	1
143	0
147	0
154	32
155	4
