Mass Spectrum: 2-Undecene, 6-methyl-, (E)-
Formula: C12H24
CAS: 74630-61-8
Molecular weight: 168
m/z	intensity
24	0
25	3
26	8
27	111
28	8
29	265
30	9
31	0
36	1
38	3
39	96
40	17
41	403
42	85
43	526
44	6
45	0
46	0
47	0
48	0
50	1
51	5
52	5
53	46
54	33
55	692
56	932
57	999
58	37
59	1
60	0
63	4
64	0
65	4
66	4
67	32
68	43
69	407
70	244
71	130
72	3
73	0
75	0
77	4
78	0
79	4
81	21
82	6
83	99
84	125
85	10
86	1
91	1
93	0
95	25
96	38
97	226
98	57
99	2
109	1
110	1
111	8
112	114
113	23
125	4
126	2
139	0
140	2
168	35
169	3
