Mass Spectrum: 3-Undecene, 7-methyl-, (E)-
Formula: C12H24
CAS: 74630-53-8
Molecular weight: 168
m/z	intensity
25	3
26	6
27	161
28	19
29	221
30	8
31	1
32	3
34	1
35	2
36	1
38	4
39	123
40	17
41	656
42	108
43	724
44	0
45	1
47	3
48	1
49	0
50	2
51	13
52	7
53	47
54	36
55	440
56	999
57	610
58	25
63	0
65	8
66	6
67	74
68	45
69	501
70	399
71	39
72	2
73	0
74	0
75	0
76	2
77	7
78	2
79	7
80	0
81	25
82	20
83	130
84	91
85	44
86	2
91	3
92	1
93	1
95	9
97	27
98	60
99	20
104	0
109	4
110	13
111	104
112	16
113	0
115	0
121	0
125	0
126	20
127	1
128	0
140	2
152	1
153	0
154	0
168	42
169	8
