Mass Spectrum: 5-Undecene, 7-methyl-, (E)-
Formula: C12H24
CAS: 74630-66-3
Molecular weight: 168
m/z	intensity
22	0
25	1
26	3
27	108
28	22
29	136
32	11
36	1
37	3
38	1
39	64
40	10
41	316
42	44
43	193
44	5
50	1
51	8
52	5
53	38
54	14
55	853
56	403
57	198
58	4
65	5
66	5
67	56
68	55
69	999
70	201
71	22
72	1
74	1
77	11
79	13
80	2
81	18
82	11
83	98
84	68
85	18
87	1
93	0
95	6
97	32
98	36
99	7
106	0
109	2
110	16
111	153
112	19
113	1
126	21
140	0
168	36
169	2
