Mass Spectrum: Phosphinous chloride, phenyl(1,7,7-trimethylbicyclo[2.2.1]hept-2-yl)-
Formula: C16H22ClP
CAS: 74630-27-6
Molecular weight: 280
m/z	intensity
27	70
28	50
29	64
30	1
31	0
32	5
34	0
35	3
36	27
37	1
38	9
39	74
40	13
41	271
42	14
43	112
44	17
45	3
46	0
47	1
48	2
49	1
50	8
51	32
52	12
53	62
54	7
55	106
56	6
57	62
58	3
59	2
60	0
61	0
62	1
63	8
64	1
65	34
66	12
67	162
68	31
69	220
70	12
71	36
72	2
73	1
74	1
75	2
76	2
77	82
78	39
79	83
80	21
81	999
82	70
83	19
84	1
85	2
86	0
87	1
88	0
89	2
90	0
91	84
92	40
93	147
94	23
95	275
96	21
97	4
98	1
99	1
100	0
101	0
102	2
103	8
104	7
105	19
106	5
107	63
108	28
109	48
110	10
111	3
112	1
113	0
114	0
115	8
116	3
117	4
118	1
119	7
120	3
121	61
122	12
123	9
124	5
125	2
126	0
127	1
128	5
129	4
130	2
131	2
132	1
133	16
134	8
135	10
136	97
137	608
138	66
139	5
140	0
141	2
142	1
143	52
144	9
145	19
146	4
147	4
148	0
149	2
150	2
151	2
152	1
153	2
154	1
155	1
156	1
157	0
158	8
159	2
160	3
161	2
162	0
163	1
164	2
165	5
166	1
167	1
168	1
169	1
170	4
171	16
172	4
173	8
174	1
175	2
176	1
177	1
178	0
181	0
182	0
183	1
184	1
185	0
186	3
187	2
188	0
189	3
190	1
191	1
192	1
193	0
194	0
197	3
198	5
199	5
200	2
201	2
202	1
203	1
204	0
205	1
206	0
209	1
210	4
211	2
212	1
213	2
214	0
215	0
217	1
218	0
219	0
223	2
224	0
225	3
226	0
227	0
229	2
230	0
231	4
232	1
234	0
237	2
238	0
239	1
240	1
241	0
243	0
244	2
245	5
246	5
247	2
249	0
250	0
251	1
252	1
253	0
254	0
259	11
260	2
261	0
262	0
263	0
264	0
265	116
266	19
267	36
268	6
269	0
273	0
274	4
275	0
278	0
279	2
280	74
281	15
282	25
283	4
284	0
