Mass Spectrum: 2-Decene, 9-methyl-, (Z)-
Formula: C11H22
CAS: 74630-24-3
Molecular weight: 154
m/z	intensity
24	4
25	3
26	11
27	167
28	20
29	252
30	5
32	1
37	6
38	3
39	149
40	34
41	546
42	120
43	633
44	7
46	1
47	0
49	0
50	4
51	7
52	3
53	58
54	53
55	634
56	999
57	607
58	18
62	1
63	0
65	8
66	8
67	61
68	62
69	643
70	237
71	43
72	0
75	0
77	5
79	6
80	3
81	26
82	16
83	121
84	82
85	13
86	0
91	0
92	0
93	0
95	2
96	11
97	64
98	52
99	3
103	1
105	0
109	1
110	4
111	29
112	10
113	1
114	0
124	0
125	1
126	20
139	12
154	42
155	3
