Mass Spectrum: Phosphonous acid, (1-methylethyl)-, bis[5-methyl-2-(1-methylethyl)cyclohexyl] ester
Formula: C23H45O2P
CAS: 74630-15-2
Molecular weight: 384
m/z	intensity
26	8
27	31
28	12
29	41
30	0
31	1
32	1
37	0
38	1
39	23
40	6
41	146
42	11
43	119
44	2
45	1
47	3
48	1
49	2
50	0
51	4
52	1
53	23
54	16
55	248
56	14
57	104
58	3
59	1
62	0
63	6
64	0
65	14
66	4
67	56
68	18
69	141
70	7
71	15
72	1
73	3
74	1
75	1
76	1
77	9
78	2
79	17
80	15
81	123
82	37
83	343
84	22
85	0
90	1
91	11
92	1
93	10
94	13
95	128
96	30
97	57
98	5
99	2
102	0
103	1
105	0
106	0
107	4
108	246
109	999
110	38
111	6
112	0
117	2
118	0
119	1
120	1
121	3
122	10
123	38
124	2
126	0
127	0
131	0
134	1
135	1
136	1
137	13
138	212
139	72
140	7
148	0
149	3
150	4
151	1
155	1
159	0
160	1
161	1
163	42
164	5
165	0
173	0
177	0
178	0
185	0
187	0
189	1
199	0
202	1
203	11
204	3
229	4
230	0
231	3
233	0
245	5
246	26
247	42
248	5
249	1
383	0
384	7
385	1
