Mass Spectrum: 2-Decene, 4-methyl-, (Z)-
Formula: C11H22
CAS: 74630-30-1
Molecular weight: 154
m/z	intensity
24	6
25	5
26	5
27	99
28	19
29	125
30	5
31	1
33	0
35	1
36	1
37	4
38	2
39	88
40	20
41	579
42	92
43	210
44	8
46	1
47	0
49	2
50	3
51	5
52	6
53	39
54	23
55	410
56	496
57	79
58	1
61	0
63	1
64	1
65	10
66	5
67	56
68	70
69	999
70	300
71	36
72	1
73	0
75	0
77	5
78	0
79	8
80	1
81	15
82	11
83	93
84	228
85	62
86	1
91	2
92	0
95	2
97	39
98	6
107	0
109	1
110	12
111	49
112	12
113	0
117	0
126	3
139	0
154	24
155	1
