Mass Spectrum: 2-Butene, 1-bromo-1,1,2-trifluoro-
Formula: C4H4BrF3
CAS: 74630-90-3
Molecular weight: 188
m/z	intensity
26	43
27	74
28	6
29	0
31	111
32	7
33	71
34	0
36	4
37	35
38	51
39	349
40	17
42	0
43	3
44	1
45	26
46	3
47	1
48	2
49	10
50	22
51	38
52	1
56	40
57	156
58	23
59	343
60	11
62	3
63	7
64	40
65	1
66	0
68	13
69	56
70	9
72	0
73	2
74	3
75	41
76	0
77	10
78	1
79	33
80	6
81	34
82	18
83	7
84	0
85	0
86	0
87	9
88	26
89	284
90	49
91	3
92	0
93	6
94	2
95	4
96	0
104	2
106	7
107	16
108	63
109	999
110	43
111	3
112	3
113	3
115	2
116	0
118	0
119	1
121	0
122	0
123	0
124	0
126	0
129	9
131	9
135	1
137	6
139	15
141	0
142	1
143	1
144	1
145	0
149	0
151	0
155	1
160	4
162	3
163	0
168	0
169	5
170	0
171	4
173	0
175	0
187	0
188	8
189	0
190	7
191	0
