Mass Spectrum: 3-Undecene, 4-methyl-
Formula: C12H24
CAS: 74630-68-5
Molecular weight: 168
m/z	intensity
26	7
27	95
28	21
29	137
30	4
31	0
32	6
35	0
36	1
37	2
38	3
39	91
40	19
41	415
42	80
43	263
44	13
45	0
46	0
49	1
51	8
52	3
53	52
54	17
55	741
56	999
57	129
58	5
65	10
66	8
67	71
68	47
69	613
70	179
71	26
77	11
79	12
80	3
81	45
82	20
83	139
84	358
85	117
86	5
91	4
93	2
95	7
96	4
97	79
98	17
99	3
103	0
105	0
111	9
112	1
115	0
123	0
124	8
125	39
126	8
140	1
147	0
153	0
168	67
169	5
