Mass Spectrum: 2H-1,3,2-Oxazaborine, 2-ethyltetrahydro-4,5-dimethyl-3-(1-methylethyl)-6-phenyl-
Formula: C16H26BNO
CAS: 74630-85-6
Molecular weight: 259
m/z	intensity
23	0
24	0
25	3
26	16
27	85
28	44
29	36
30	5
34	1
35	1
36	0
37	5
38	6
39	66
40	30
41	125
42	135
43	156
44	72
45	3
47	0
48	1
49	1
50	11
51	31
52	15
53	49
54	136
55	33
56	29
57	17
58	17
59	4
60	0
61	1
62	4
63	17
64	5
65	33
66	23
67	21
68	55
69	42
70	755
71	39
72	5
73	1
74	3
75	3
76	5
77	36
78	25
79	11
80	14
81	18
82	61
83	10
84	50
85	22
86	199
87	15
88	4
89	24
90	19
91	192
92	17
93	2
94	6
95	8
96	19
97	3
98	6
99	7
100	22
101	3
102	7
103	26
104	7
105	61
106	7
107	3
108	9
109	5
110	14
111	10
112	30
113	12
114	6
115	94
116	74
117	314
118	999
119	97
120	5
122	10
123	1
124	3
125	2
126	8
127	4
128	8
129	9
130	5
131	10
132	25
133	3
136	2
137	4
138	15
139	1
140	1
141	56
142	223
143	19
144	4
145	18
146	9
147	1
151	0
152	3
158	1
160	0
165	1
166	4
167	1
168	2
172	1
173	0
174	0
181	1
186	0
187	0
188	22
189	2
203	2
216	0
228	2
230	5
241	2
243	99
244	373
245	65
246	7
247	0
257	0
258	9
259	28
260	4
