Mass Spectrum: 2-Decene, 6-methyl-, (Z)-
Formula: C11H22
CAS: 74630-31-2
Molecular weight: 154
m/z	intensity
24	2
25	4
26	6
27	183
29	302
30	4
31	1
32	6
36	1
38	3
39	161
40	26
41	532
42	120
43	980
44	10
46	0
47	0
48	1
50	5
51	12
52	6
53	62
54	41
55	796
56	999
57	828
58	33
59	2
63	1
65	13
66	5
67	46
68	44
69	436
70	455
71	43
73	3
75	0
77	11
78	1
79	10
80	2
81	29
82	9
83	123
84	110
85	55
86	2
91	1
93	3
95	12
96	32
97	206
98	78
99	14
100	1
105	0
109	0
111	23
112	61
113	7
115	0
124	2
125	2
126	4
127	0
152	0
154	41
155	3
