Mass Spectrum: 4-Undecene, 5-methyl-, (Z)-
Formula: C12H24
CAS: 74630-69-6
Molecular weight: 168
m/z	intensity
25	2
26	10
27	130
28	39
29	188
30	10
31	2
32	16
33	1
37	1
38	0
39	100
40	15
41	393
42	76
43	279
45	1
46	0
50	3
51	10
52	8
53	67
54	32
55	999
56	825
57	375
58	16
59	0
61	1
63	2
65	14
66	10
67	80
68	54
69	489
70	466
71	83
72	7
73	2
74	1
77	14
78	1
79	24
80	2
81	42
82	26
83	425
84	114
85	24
86	2
89	0
91	3
92	0
93	1
95	14
96	9
97	106
98	59
99	23
100	1
104	1
105	0
106	0
107	0
109	2
110	8
111	50
112	12
119	0
121	1
125	5
126	14
127	1
133	0
139	5
140	5
142	1
167	2
168	66
169	12
170	2
