Mass Spectrum: 3-Undecene, 9-methyl-, (Z)-
Formula: C12H24
CAS: 74630-50-5
Molecular weight: 168
m/z	intensity
21	0
26	6
27	145
28	10
29	327
30	7
31	0
34	0
35	1
37	4
38	2
39	152
40	25
41	827
42	156
43	463
46	0
49	0
50	2
51	11
52	6
53	68
54	57
55	829
56	408
57	649
58	23
63	0
65	10
66	9
67	103
68	43
69	556
70	999
71	239
72	12
73	0
77	7
78	1
79	11
80	1
81	40
82	33
83	553
84	106
85	15
89	0
91	0
94	0
95	9
96	8
97	163
98	41
99	4
109	3
110	5
111	28
112	14
113	1
115	2
116	0
125	2
126	1
138	9
139	66
140	15
141	0
168	34
169	2
