Mass Spectrum: 4-Undecene, 8-methyl-, (Z)-
Formula: C12H24
CAS: 74630-55-0
Molecular weight: 168
m/z	intensity
24	2
25	3
26	9
27	149
28	5
29	191
30	6
31	3
32	8
34	0
35	3
37	3
38	8
39	128
40	22
41	531
42	120
43	989
44	13
45	2
46	0
47	2
48	0
49	1
50	6
51	12
52	6
53	48
54	77
55	794
56	999
57	251
58	8
61	0
62	0
63	2
65	14
66	5
67	72
68	36
69	568
70	306
71	152
72	8
75	0
77	12
78	1
79	14
80	3
81	37
82	22
83	195
84	415
85	153
86	10
88	0
91	4
92	1
93	3
94	1
95	14
96	14
97	155
98	51
99	2
102	0
103	0
105	0
109	0
110	1
111	11
112	5
123	1
124	14
125	77
126	12
127	1
139	1
140	4
141	1
166	1
168	60
169	6
170	0
