Mass Spectrum: 4-Undecene, 10-methyl-, (E)-
Formula: C12H24
CAS: 74630-60-7
Molecular weight: 168
m/z	intensity
25	11
26	7
27	292
28	10
29	292
30	15
32	7
35	9
38	3
39	205
40	50
41	871
42	163
43	740
44	7
45	4
48	2
50	5
51	11
52	11
53	72
54	122
55	890
56	999
57	507
58	16
63	0
65	21
66	15
67	143
68	71
69	721
70	234
71	65
75	7
77	22
78	6
79	30
80	10
81	51
82	43
83	326
84	120
85	40
93	2
95	27
96	10
97	101
98	7
111	45
112	29
124	5
125	13
126	2
139	0
140	4
168	47
169	15
