Mass Spectrum: 3-Undecene, 2-methyl-, (Z)-
Formula: C12H24
CAS: 74630-48-1
Molecular weight: 168
m/z	intensity
22	0
23	0
25	1
26	7
27	133
28	27
29	184
30	3
32	3
34	0
35	1
37	1
38	3
39	115
40	25
41	572
42	106
43	360
47	0
49	1
50	2
51	10
52	6
53	58
54	36
55	670
56	922
57	382
58	17
63	0
64	0
65	12
66	7
67	91
68	90
69	999
70	260
71	53
72	2
75	0
77	9
78	1
79	12
80	4
81	39
82	35
83	192
84	114
85	25
86	1
91	3
93	0
95	9
96	7
97	87
98	21
99	1
109	1
110	5
111	31
112	32
113	2
124	3
125	9
126	4
140	15
141	0
153	7
154	1
168	55
169	6
