Mass Spectrum: 5-Undecene, 3-methyl-, (E)-
Formula: C12H24
CAS: 74630-67-4
Molecular weight: 168
m/z	intensity
21	2
26	2
27	130
28	103
29	260
30	9
31	0
32	22
36	0
37	5
38	2
39	113
40	9
41	463
42	129
43	380
44	14
45	2
48	1
50	3
51	9
52	6
53	56
54	90
55	827
56	268
57	309
58	10
61	0
63	1
65	8
66	5
67	61
68	27
69	406
70	999
71	226
72	10
73	1
77	7
78	3
79	10
80	1
81	28
82	20
83	320
84	63
85	8
91	1
95	5
96	9
97	89
98	24
99	3
109	1
110	1
111	11
112	8
113	0
115	2
126	1
129	0
138	3
139	30
140	9
151	0
168	37
169	5
