Mass Spectrum: Phosphonochloridous acid, (1-methylethyl)-, 5-methyl-2-(1-methylethyl)cyclohexyl ester
Formula: C13H26ClOP
CAS: 74630-89-0
Molecular weight: 264
m/z	intensity
26	44
27	287
28	38
29	161
30	3
31	6
32	2
33	0
34	0
35	20
36	90
37	22
38	38
39	292
40	71
41	715
42	141
43	483
44	17
45	13
46	3
47	16
48	4
49	5
50	9
51	23
52	14
53	106
54	70
55	581
56	79
57	271
58	14
59	4
60	0
61	1
62	2
63	17
64	5
65	28
66	16
67	193
68	72
69	455
70	61
71	78
72	7
73	12
74	4
75	4
76	1
77	45
78	10
79	67
80	37
81	435
82	119
83	999
84	80
85	10
86	2
87	2
88	1
89	2
90	4
91	28
92	8
93	29
94	41
95	434
96	96
97	200
98	22
99	3
100	1
101	1
102	0
103	1
104	0
105	4
106	1
107	6
110	18
111	31
112	118
113	11
114	0
115	0
116	0
117	0
118	0
119	1
120	0
121	8
122	1
123	149
124	15
125	8
126	112
127	140
128	40
129	44
130	2
131	0
132	0
133	1
134	0
135	1
136	2
137	15
138	335
139	203
140	18
141	1
142	0
143	1
144	0
145	0
147	0
149	0
151	0
152	0
153	1
154	29
155	3
161	0
162	0
165	0
166	0
167	1
168	1
169	0
171	0
178	1
179	0
180	0
181	7
182	0
183	2
184	0
185	0
186	1
187	0
192	0
193	0
194	0
200	0
202	0
206	0
207	0
213	0
221	0
222	0
223	0
224	0
227	0
228	0
229	15
230	1
249	2
263	0
264	8
265	1
266	3
267	0
