Mass Spectrum: 1,5-Heptadiene, 3,3,5-trimethyl-
Formula: C10H18
CAS: 74630-29-8
Molecular weight: 138
m/z	intensity
24	0
25	1
26	3
27	68
28	6
29	41
30	0
32	0
36	0
37	3
38	3
39	76
40	18
41	724
42	46
43	24
44	0
47	0
48	0
49	0
50	3
51	12
52	6
53	55
54	8
55	70
56	4
57	5
58	0
61	0
62	0
63	2
64	0
65	12
66	6
67	65
68	50
69	999
70	168
71	6
74	0
77	10
78	2
79	10
80	1
81	28
82	23
83	4
89	0
91	10
92	1
93	7
94	26
95	224
96	24
97	1
103	0
105	2
107	2
108	0
109	7
110	1
111	4
112	0
115	0
117	0
119	2
121	1
122	0
123	45
124	3
134	0
136	0
138	12
139	0
