Mass Spectrum: 5-Undecene, 2-methyl-, (Z)-
Formula: C12H24
CAS: 74630-63-0
Molecular weight: 168
m/z	intensity
25	3
26	4
27	131
28	25
29	227
30	12
34	0
35	1
37	3
38	4
39	104
40	20
41	511
42	106
43	369
44	10
45	1
46	3
49	1
50	1
51	7
53	42
54	89
55	588
56	999
57	471
58	26
62	1
64	0
65	9
66	8
67	54
68	53
69	696
70	262
71	48
72	2
74	0
77	8
78	1
79	13
80	5
81	33
82	30
83	178
84	93
85	16
86	0
91	1
92	0
93	0
95	10
96	5
97	78
98	19
109	3
110	4
111	23
112	25
113	2
114	0
124	3
125	10
126	3
140	12
153	7
164	0
166	2
167	0
168	54
169	6
