Mass Spectrum: Phosphinous chloride, (1-methylethyl)(1,7,7-trimethylbicyclo[2.2.1]hept-2-yl)-
Formula: C13H24ClP
CAS: 74630-17-4
Molecular weight: 246
m/z	intensity
27	174
28	14
29	107
30	3
31	1
35	2
36	22
37	4
38	9
39	149
40	33
41	571
42	41
43	344
44	13
45	22
46	2
47	10
48	7
49	4
50	9
51	22
52	11
53	108
54	11
55	174
56	10
57	73
58	7
59	9
60	1
61	9
62	14
63	9
64	5
65	42
66	24
67	198
68	41
69	381
70	25
71	36
72	5
73	17
74	5
75	11
76	8
77	124
78	55
79	132
80	41
81	999
82	77
83	44
84	9
85	17
86	2
87	4
88	1
89	5
90	16
91	97
92	129
93	381
94	64
95	327
96	30
97	24
98	8
99	13
100	5
101	5
102	3
103	16
104	8
105	28
106	9
107	59
108	44
109	78
110	44
111	25
112	15
113	10
114	2
115	6
116	2
117	5
118	12
119	18
120	8
121	146
122	33
123	16
124	52
125	16
126	14
127	6
128	3
129	3
130	3
131	3
132	3
133	4
134	9
135	21
136	270
137	296
138	40
139	40
140	5
141	4
143	2
145	15
146	3
147	10
148	7
149	4
150	5
151	2
152	2
153	5
154	1
155	3
156	1
159	2
161	4
162	5
163	16
164	44
165	13
166	14
167	9
168	8
169	6
170	7
171	2
173	0
175	7
176	20
177	12
178	10
179	4
181	1
185	5
189	41
190	5
191	23
192	4
193	3
194	0
195	3
197	24
198	2
199	1
202	1
203	23
204	83
205	20
206	28
207	2
209	1
210	4
211	18
212	16
213	7
214	2
215	1
216	2
217	6
218	2
219	2
220	1
221	0
225	0
228	2
229	1
230	1
231	696
232	94
233	230
234	26
235	1
239	13
240	2
245	4
246	190
247	30
248	71
249	10
