Mass Spectrum: 3-Undecene, 9-methyl-, (E)-
Formula: C12H24
CAS: 74630-54-9
Molecular weight: 168
m/z	intensity
24	3
25	5
26	12
27	192
28	165
29	435
30	12
31	3
32	12
33	0
34	1
35	0
37	6
38	6
39	169
40	32
41	930
42	148
43	484
44	6
45	3
47	2
49	2
50	6
51	13
52	6
53	76
54	59
55	842
56	453
57	709
58	28
59	1
61	1
62	0
63	2
64	0
65	14
66	12
67	130
68	59
69	623
70	999
71	269
72	10
74	1
75	1
77	6
79	5
80	3
81	33
82	42
83	556
84	116
85	15
91	0
95	9
96	11
97	157
98	53
99	5
109	5
110	5
111	24
112	9
113	1
115	2
125	3
126	2
138	6
139	50
140	13
168	62
169	5
