Mass Spectrum: 2,7-Nonadien-5-one, 4,6-dimethyl-
Formula: C11H18O
CAS: 74630-80-1
Molecular weight: 166
m/z	intensity
26	0
27	38
28	13
29	19
37	0
39	63
40	2
41	594
42	11
43	20
44	7
51	2
53	17
54	1
55	4
56	1
65	1
66	0
67	20
68	13
69	999
70	32
71	1
77	0
79	1
81	0
85	0
91	1
95	1
96	4
97	130
98	2
99	1
105	0
149	3
166	1
