Mass Spectrum: Ethanone, 1-(5-ethenyl-2-ethyl-4-methyl-1,3,2-dioxaborolan-4-yl)-
Formula: C9H15BO3
CAS: 74646-08-5
Molecular weight: 182
m/z	intensity
26	256
27	448
28	434
29	206
30	6
31	10
36	6
37	20
38	25
39	187
40	59
41	101
42	64
43	999
44	49
45	27
46	1
47	1
48	1
49	4
50	21
51	33
52	24
53	115
54	49
55	439
56	150
57	123
58	5
59	3
61	7
62	6
63	6
64	2
65	23
66	19
67	38
68	20
69	71
70	21
71	23
72	2
73	2
74	1
75	3
76	4
77	10
78	3
79	12
80	4
81	13
82	37
83	706
84	106
85	9
86	6
87	2
88	1
89	0
90	0
91	5
92	1
93	6
94	4
95	14
96	38
97	163
98	198
99	32
100	2
101	1
103	0
105	1
106	1
107	5
108	8
109	19
110	100
111	375
112	28
113	10
114	3
115	1
116	0
117	0
119	0
120	1
121	3
122	6
123	18
124	71
125	343
126	431
127	42
128	4
129	0
133	0
135	1
136	4
137	12
138	211
139	812
140	86
141	85
142	6
143	1
148	1
149	3
150	2
151	6
152	25
153	87
154	97
155	192
156	13
157	1
162	0
163	2
164	1
165	2
166	3
167	6
168	4
169	7
170	1
171	0
177	0
179	1
180	0
181	2
182	12
183	29
