Mass Spectrum: Ethanone, 1-(2-ethyl-4,5,5-trimethyl-1,3,2-dioxaborolan-4-yl)-
Formula: C9H17BO3
CAS: 74646-11-0
Molecular weight: 184
m/z	intensity
26	87
27	172
28	402
29	143
30	5
31	12
36	2
37	10
38	15
39	100
40	27
41	192
42	68
43	999
44	38
45	26
46	0
47	0
48	0
49	2
50	10
51	21
52	17
53	71
54	29
55	113
56	29
57	324
58	83
59	15
62	3
63	5
64	0
65	6
66	4
67	24
68	8
69	44
70	16
71	47
72	3
73	1
74	0
75	1
76	3
77	3
78	1
79	3
80	1
81	5
82	22
83	86
84	6
85	869
86	70
87	6
88	1
89	0
91	0
93	0
94	1
95	4
96	23
97	119
98	165
99	13
100	1
101	0
105	0
106	0
107	1
108	1
109	9
110	74
111	272
112	18
113	8
114	1
115	0
120	0
121	1
122	2
123	10
124	53
125	262
126	382
127	36
128	3
129	0
137	0
138	1
139	5
140	193
141	787
142	61
143	5
144	0
149	0
151	1
152	2
153	7
154	14
155	29
156	2
166	0
167	0
168	1
169	3
170	0
182	0
183	1
184	1
