Mass Spectrum: 4-Undecene, 3-methyl-, (Z)-
Formula: C12H24
CAS: 74645-87-7
Molecular weight: 168
m/z	intensity
24	1
25	2
26	12
27	103
28	24
29	184
30	5
33	0
35	3
38	3
39	81
40	16
41	378
42	75
43	188
45	1
46	1
47	1
48	0
50	5
51	10
52	6
53	45
54	30
55	999
56	198
57	222
58	11
59	0
60	0
62	0
63	1
64	1
65	12
66	7
67	77
68	51
69	418
70	544
71	163
72	9
74	0
75	0
77	10
78	0
79	18
80	3
81	47
82	27
83	652
84	89
85	12
91	3
92	0
93	0
94	0
95	10
96	9
97	182
98	35
99	3
109	2
110	3
111	14
112	7
113	0
115	4
125	1
138	3
139	39
140	6
141	0
144	0
147	0
153	0
166	0
168	44
169	4
170	0
