Mass Spectrum: Ethanone, 1-[2-ethyl-4-methyl-5-(1-methylethyl)-1,3,2-dioxaborolan-4-yl]-
Formula: C10H19BO3
CAS: 74646-06-3
Molecular weight: 198
m/z	intensity
26	62
27	239
28	188
29	157
30	4
31	10
36	1
37	7
38	11
39	110
40	20
41	243
42	46
43	999
44	36
45	22
46	0
48	0
49	1
50	8
51	14
52	11
53	57
54	25
55	262
56	51
57	174
58	6
59	3
61	3
62	3
63	4
64	1
65	6
66	4
67	19
68	10
69	68
70	13
71	30
72	59
73	6
74	0
75	1
76	1
77	4
78	1
79	6
80	1
81	11
82	33
83	115
84	30
85	19
86	2
87	1
88	0
89	0
91	2
92	0
93	1
94	2
95	4
96	18
97	83
98	126
99	166
100	14
101	2
105	1
106	0
107	1
108	2
109	12
110	62
111	236
112	106
113	338
114	20
115	2
121	1
122	2
123	8
124	34
125	180
126	270
127	35
128	2
134	0
137	2
138	6
139	16
140	5
141	14
142	3
143	1
149	0
151	0
152	6
153	26
154	231
155	835
156	73
157	6
165	0
167	1
168	2
169	9
170	0
