Mass Spectrum: 1,3,2-Dioxaborolan-4-one, 2-ethyl-
Formula: C4H7BO3
CAS: 74646-12-1
Molecular weight: 114
m/z	intensity
26	65
27	105
28	191
29	171
30	23
31	30
33	0
34	1
35	0
36	4
37	12
38	9
39	69
40	199
41	88
42	278
43	46
44	20
45	15
46	0
47	2
48	1
49	4
50	0
51	1
52	10
53	31
54	16
55	54
56	34
57	95
58	29
59	8
64	0
65	2
66	3
67	8
68	67
69	410
70	999
71	33
72	2
73	0
75	1
76	1
77	1
78	1
83	1
84	6
85	17
86	1
87	1
88	0
113	5
114	22
115	1
