Mass Spectrum: 1-Tridecyn-4-ol
Formula: C13H24O
CAS: 74646-37-0
Molecular weight: 196
m/z	intensity
22	0
23	0
24	1
25	3
26	11
27	151
28	37
29	303
30	10
31	43
33	0
34	0
35	1
36	4
37	18
38	23
39	209
40	96
41	649
42	102
43	629
44	99
45	32
46	0
47	1
48	0
49	2
50	4
51	11
52	6
53	38
54	45
55	993
56	112
57	522
58	27
59	6
61	0
62	0
63	2
64	1
65	14
66	14
67	91
68	64
69	788
70	97
71	136
72	10
73	2
75	2
76	0
77	23
78	10
79	62
80	23
81	79
82	39
83	999
84	83
85	18
86	1
87	1
89	0
91	17
92	4
93	26
94	11
95	36
96	14
97	358
98	30
99	2
101	0
105	2
106	0
107	10
108	2
109	7
110	7
111	21
112	9
113	1
115	1
117	0
119	0
121	6
122	0
123	2
124	0
125	0
128	3
129	1
130	0
135	2
137	0
138	0
139	6
155	1
157	88
158	8
