Mass Spectrum: 1,3,2-Dioxaborinane, 2-ethyl-5-methyl-4-phenyl-
Formula: C12H17BO2
CAS: 74646-03-0
Molecular weight: 204
m/z	intensity
26	74
27	99
28	93
29	147
30	23
31	7
37	5
38	11
39	136
40	31
41	158
42	227
43	27
44	10
45	7
49	3
50	35
51	106
52	32
53	37
54	11
55	36
56	115
57	402
58	22
59	27
60	1
61	2
62	13
63	50
64	18
65	61
66	7
67	3
68	5
69	14
70	4
71	6
72	1
73	2
74	16
75	12
76	18
77	221
78	79
79	177
80	13
81	1
82	2
83	4
84	2
85	3
86	3
87	6
88	6
89	66
90	64
91	773
92	75
93	4
94	2
96	2
97	6
98	9
99	4
100	1
101	5
102	18
103	50
104	52
105	633
106	180
107	999
108	82
109	6
110	7
111	22
112	23
113	69
114	8
115	142
116	56
117	228
118	265
119	90
120	10
121	1
124	1
125	5
126	13
127	11
128	18
129	28
130	32
131	54
132	38
133	123
134	17
135	2
137	2
138	7
139	8
140	1
141	2
143	1
144	1
145	14
146	47
147	17
148	75
149	9
150	5
151	1
158	1
159	3
160	31
161	113
162	21
163	6
164	1
166	1
167	5
168	7
169	0
170	1
171	1
172	1
173	1
174	34
175	131
176	16
177	1
178	1
186	0
187	2
188	2
189	9
190	1
201	3
202	38
203	295
204	753
205	101
206	8
