Mass Spectrum: 2,4-Methylene-.beta.-sedoheptitol
Formula: C8H16O7
CAS: 7464-23-5
Molecular weight: 224
m/z	intensity
41	79
42	72
43	383
44	169
45	218
46	11
47	16
48	0
49	4
50	2
51	5
52	2
53	20
54	13
55	131
56	219
57	240
58	23
59	23
60	74
61	136
62	17
63	3
64	2
65	2
66	1
67	6
68	10
69	13
70	21
71	114
72	21
73	999
74	326
75	28
76	3
77	5
78	6
79	2
81	33
82	8
83	22
84	12
85	370
86	68
87	33
88	2
89	8
90	1
91	46
92	2
93	2
95	5
96	2
97	34
98	17
99	45
100	7
101	19
102	23
103	260
104	24
105	9
106	4
107	2
109	8
110	2
111	18
112	4
113	5
114	3
115	52
116	207
117	15
118	2
119	2
121	4
122	3
123	2
124	3
125	2
127	40
128	10
129	28
130	3
131	3
132	1
133	146
134	13
135	3
139	2
140	0
141	3
145	167
146	24
147	3
149	1
151	0
155	1
157	13
158	4
159	2
163	37
164	3
171	0
175	71
176	11
177	2
181	0
182	0
188	0
189	2
193	3
207	1
211	0
212	0
224	14
225	1
