Mass Spectrum: 1-Dodecyn-4-ol
Formula: C12H22O
CAS: 74646-36-9
Molecular weight: 182
m/z	intensity
22	0
23	0
24	1
25	2
26	6
27	108
28	32
29	205
30	7
31	30
32	0
33	0
34	0
35	1
36	3
37	12
38	21
39	148
40	65
41	445
42	63
43	314
44	69
45	23
46	0
47	0
48	1
49	1
50	2
51	8
52	4
53	24
54	25
55	548
56	83
57	348
58	18
59	4
62	0
63	2
64	0
65	10
66	8
67	51
68	38
69	999
70	86
71	32
72	4
73	2
74	0
75	0
76	0
77	16
78	6
79	37
80	12
81	37
82	18
83	395
84	32
85	4
86	0
87	0
91	10
92	1
93	15
94	5
95	14
96	8
97	34
98	13
99	2
103	0
104	0
105	2
107	6
108	1
109	3
110	1
111	1
114	1
115	0
116	0
117	0
121	2
123	0
124	1
125	21
126	2
135	0
141	1
143	66
144	6
