Mass Spectrum: 4-Tosyl-1,3:2,5-dimethylene-l-rhamnitol
Formula: C15H20O7S
CAS: 7465-83-0
Molecular weight: 344
m/z	intensity
41	167
42	43
43	334
44	99
45	677
47	35
48	14
49	92
50	23
51	75
52	17
53	34
54	105
55	196
57	999
58	75
59	59
60	6
61	4
62	11
63	59
64	28
65	316
66	18
67	17
68	312
69	514
70	70
71	96
72	31
73	368
74	15
75	7
76	4
77	49
78	21
79	25
80	5
81	30
82	191
83	163
84	81
85	290
86	89
87	97
88	10
89	82
90	60
91	999
92	144
93	14
94	1
95	11
96	17
97	18
98	124
99	210
100	27
101	19
102	2
103	8
104	3
105	67
106	12
107	42
108	19
109	3
110	8
111	14
112	27
113	17
114	11
115	293
116	17
117	30
118	2
119	12
120	1
121	7
122	1
123	2
124	7
125	5
126	18
127	16
128	341
129	108
130	8
131	7
132	1
133	6
134	12
135	1
138	1
139	80
140	17
141	9
142	95
143	18
144	13
145	191
146	11
147	4
148	4
149	3
150	1
151	5
152	1
154	9
155	857
156	80
157	64
158	6
159	3
162	4
169	1
170	4
171	12
172	288
173	67
174	9
175	2
176	7
181	1
184	2
185	2
187	2
188	1
189	2
190	11
191	1
197	2
198	27
199	28
200	4
201	1
211	3
212	15
213	6
214	1
215	2
217	1
224	3
225	1
227	123
228	12
229	8
236	4
240	19
241	38
242	5
243	3
252	1
253	1
254	2
255	1
256	2
257	1
268	1
269	4
270	92
271	279
272	42
273	17
274	1
283	3
284	11
285	2
296	1
299	19
300	8
301	8
314	34
315	5
316	2
343	4
344	36
345	12
346	2
