Mass Spectrum: 4-Methoxybenzoic acid, 2-phenylethyl ester
Formula: C16H16O3
CAS: 7465-97-6
Molecular weight: 256
m/z	intensity
26	5
27	24
28	2
29	12
30	4
39	42
40	4
41	15
42	4
43	4
50	45
51	61
52	16
53	19
55	5
56	2
61	3
62	18
63	66
64	79
65	57
66	9
67	2
69	4
70	3
73	3
74	12
75	24
76	30
77	243
78	49
79	43
80	4
81	13
82	2
85	12
89	11
90	4
91	77
92	165
93	13
94	4
96	3
102	7
103	36
104	999
105	137
106	10
107	70
108	8
109	5
119	8
120	11
121	7
123	2
131	2
133	6
134	15
135	981
136	93
137	8
151	6
152	791
153	72
154	6
165	2
