Mass Spectrum: Tetrazolo[1,5-a]pyridine, 5,6,7,8-tetrahydro-
Formula: C5H8N4
CAS: 7465-48-7
Molecular weight: 124
m/z	intensity
26	180
27	550
28	370
29	140
30	20
31	10
37	40
38	100
39	500
40	270
41	999
42	900
43	170
50	20
51	50
52	40
53	220
54	230
55	830
56	180
65	10
66	10
67	100
68	920
69	250
70	10
81	50
82	20
95	120
96	10
124	180
125	80
