Mass Spectrum: 1,5-Heptadiene, 2,5-dimethyl-3-methylene-
Formula: C10H16
CAS: 74663-83-5
Molecular weight: 136
m/z	intensity
23	1
26	16
27	407
28	42
29	346
30	6
31	0
32	0
37	16
38	29
39	589
40	111
41	999
42	64
43	182
44	3
45	2
46	1
48	1
49	6
50	41
51	131
52	62
53	252
54	40
55	271
56	16
57	8
58	12
59	4
61	3
62	12
63	43
64	18
65	160
66	46
67	297
68	44
69	69
70	11
72	4
73	1
74	5
75	23
76	5
77	401
78	67
79	652
80	70
81	69
82	13
83	3
84	1
85	1
86	1
87	3
88	2
89	23
90	8
91	527
92	81
93	851
94	203
95	39
96	3
98	0
101	4
102	4
103	39
104	12
105	361
106	93
107	577
108	92
109	7
110	0
112	0
113	0
114	0
115	10
116	3
117	14
118	2
119	77
120	20
121	801
122	75
123	3
128	1
131	0
132	2
133	3
134	9
135	10
136	84
137	8
