Mass Spectrum: Cyclohexane, 1,5-diethyl-2,3-dimethyl-
Formula: C12H24
CAS: 74663-66-4
Molecular weight: 168
m/z	intensity
23	0
24	0
25	1
26	2
27	64
28	5
29	115
30	2
32	0
33	0
34	0
35	1
36	0
37	4
38	1
39	60
40	8
41	299
42	37
43	127
44	0
49	1
50	2
51	6
52	3
53	37
54	14
55	607
56	85
57	333
58	13
59	0
63	1
64	0
65	10
66	3
67	42
68	16
69	580
70	85
71	72
72	2
73	0
75	0
76	0
77	9
78	2
79	11
80	2
81	66
82	12
83	999
84	70
85	10
91	4
92	0
93	2
94	0
95	18
96	7
97	215
98	21
99	0
105	0
107	0
108	0
109	18
110	5
111	21
112	3
113	0
115	2
116	0
123	2
124	0
125	2
126	0
137	3
138	8
139	208
140	20
141	0
153	3
168	30
169	2
