Mass Spectrum: 1,2-Cyclopentanedicarboxylic acid, 3-methylene-, dimethyl ester
Formula: C10H14O4
CAS: 74663-84-6
Molecular weight: 198
m/z	intensity
27	24
28	43
29	23
30	4
31	8
32	2
35	1
36	9
38	2
39	31
40	8
41	62
42	8
43	19
44	5
45	27
49	1
50	4
51	16
52	20
53	60
54	11
55	86
56	9
57	6
59	219
60	7
61	1
63	1
64	1
65	29
66	9
67	95
68	8
69	7
70	2
71	5
73	1
75	6
76	2
77	180
78	127
79	999
80	165
81	44
82	11
85	6
87	1
91	21
92	5
93	25
94	6
95	19
96	8
97	3
99	3
103	1
104	2
105	26
106	50
107	500
108	60
109	18
110	79
111	114
112	9
113	2
114	2
116	2
117	4
118	2
119	5
120	1
121	1
123	7
124	5
125	2
127	1
131	1
133	3
134	2
135	4
136	3
137	15
138	738
139	585
140	51
141	7
146	2
147	1
149	1
152	1
155	1
159	2
160	1
161	5
162	1
164	0
165	2
166	370
167	84
168	7
170	0
198	20
199	2
