Mass Spectrum: 3-Cyclohexene-1,2-dicarboxylic acid, dimethyl ester
Formula: C10H14O4
CAS: 74663-82-4
Molecular weight: 198
m/z	intensity
27	8
28	38
29	5
30	1
31	3
32	1
33	32
34	0
36	0
39	12
40	1
41	21
42	1
43	4
44	5
45	18
46	0
47	0
50	1
51	4
52	4
53	18
54	12
55	19
56	1
57	2
58	1
59	86
60	7
61	11
63	0
64	0
65	5
66	5
67	19
68	3
69	2
70	0
71	5
74	0
75	3
77	87
78	329
79	999
80	95
81	24
82	2
83	2
84	1
85	3
87	1
88	0
89	0
91	8
92	2
93	8
94	2
95	6
96	2
97	3
98	1
99	0
101	0
103	0
104	0
105	14
106	30
107	107
108	9
109	3
110	5
111	15
112	1
113	7
114	0
115	1
116	0
117	0
119	0
120	0
121	3
122	0
123	5
124	2
133	1
134	0
135	0
136	1
137	53
138	430
139	48
140	3
141	0
148	2
149	0
163	0
165	0
166	136
167	150
168	14
169	1
198	4
199	0
