Mass Spectrum: Cyclopropane, 1-heptyl-2-methyl-
Formula: C11H22
CAS: 74663-91-5
Molecular weight: 154
m/z	intensity
24	4
26	20
27	220
28	35
29	352
30	11
31	1
33	1
35	0
38	7
39	209
40	45
41	978
42	448
43	775
44	6
47	1
48	0
49	2
50	4
51	13
52	5
53	74
54	108
55	978
56	999
57	465
58	17
61	1
62	0
64	1
65	12
66	11
67	92
68	86
69	655
70	713
71	102
72	4
75	0
77	9
78	1
79	5
80	1
81	22
82	68
83	309
84	201
85	39
86	0
91	1
95	6
96	21
97	144
98	60
99	4
110	10
111	69
112	33
113	2
124	3
125	18
126	27
127	2
131	0
139	0
154	16
155	1
