Mass Spectrum: Cyclopropane, 1-butyl-2-pentyl-, trans-
Formula: C12H24
CAS: 74663-87-9
Molecular weight: 168
m/z	intensity
23	0
24	4
25	3
26	6
27	184
28	42
29	267
30	9
32	8
34	0
35	1
36	2
39	134
40	23
41	661
42	339
43	502
44	12
45	0
50	3
51	10
52	6
53	55
54	122
55	999
56	822
57	347
58	13
65	13
66	8
67	77
68	60
69	730
70	515
71	86
72	4
77	10
78	1
79	11
81	25
82	46
83	255
84	155
85	40
86	1
91	3
93	1
95	4
96	21
97	136
98	75
99	4
110	8
111	47
112	33
113	2
124	3
125	22
126	17
127	1
139	11
140	10
168	29
169	4
