Mass Spectrum: Cyclopropane, 2-(1,1-dimethyl-2-pentenyl)-1,1-dimethyl-
Formula: C12H22
CAS: 74663-76-6
Molecular weight: 166
m/z	intensity
27	52
29	66
30	7
31	0
32	2
34	0
37	1
38	2
39	45
40	14
41	233
42	16
43	77
44	17
45	1
48	0
49	0
50	3
51	5
52	4
53	52
54	23
55	342
56	34
57	23
58	0
63	0
64	0
65	14
66	8
67	171
68	79
69	107
70	7
71	5
75	0
76	0
77	27
78	7
79	50
80	12
81	169
82	31
83	7
84	32
85	1
91	25
92	3
93	31
94	7
95	999
96	71
97	65
98	4
103	0
104	0
105	7
106	1
107	14
108	12
109	42
110	536
111	41
112	1
119	0
121	3
122	1
123	25
124	2
135	0
137	10
138	2
151	7
152	1
