Mass Spectrum: 3-Tetradecen-5-yne, (Z)-
Formula: C14H24
CAS: 74663-68-6
Molecular weight: 192
m/z	intensity
21	0
22	0
23	1
24	0
25	4
26	16
27	224
28	84
29	359
30	9
31	5
33	2
34	3
35	3
36	1
38	9
39	212
40	29
41	523
42	54
43	362
44	27
45	3
46	3
47	4
48	2
49	3
50	18
51	92
52	60
53	108
54	60
55	468
56	37
57	118
58	20
59	4
60	2
61	2
62	8
63	35
64	15
65	141
66	76
67	451
68	76
69	122
70	13
71	13
72	4
73	3
74	5
75	23
76	9
77	322
78	116
79	999
80	201
81	271
82	80
83	25
84	4
85	6
86	1
87	2
89	16
90	8
91	299
92	61
93	598
94	147
95	356
96	45
97	8
98	1
100	0
101	1
102	1
103	11
104	6
105	58
106	19
107	233
108	51
109	26
110	11
111	1
115	6
116	3
117	6
118	1
119	14
120	6
121	129
122	39
123	10
124	9
125	1
127	0
128	2
129	2
130	0
131	3
132	0
133	8
134	2
135	165
136	58
137	8
138	0
141	0
145	0
147	0
149	46
150	8
151	1
152	0
153	0
163	29
164	4
165	0
177	1
178	6
179	0
188	0
190	1
192	38
193	5
