Mass Spectrum: 2-Cinnamamido-4-phenylthiazole
Formula: C18H14N2OS
CAS: 74675-87-9
Molecular weight: 306
m/z	intensity
33	2
34	1
38	52
39	174
40	45
41	62
43	51
45	213
46	7
47	6
49	17
50	250
51	608
52	133
53	55
55	25
57	36
58	5
60	7
61	12
62	45
63	147
64	25
65	57
67	5
69	45
70	28
71	19
74	83
75	105
76	193
77	999
78	71
79	12
89	115
90	50
91	31
92	11
93	15
94	4
95	5
96	1
97	3
98	8
99	5
102	208
103	965
104	134
105	52
106	6
108	24
109	4
110	1
120	25
121	73
122	9
123	3
124	0
131	955
132	100
134	480
135	43
136	22
137	2
146	25
147	17
148	39
149	5
150	3
175	80
176	139
177	18
178	6
179	1
189	0
190	4
191	0
201	1
202	1
203	0
229	3
277	3
278	6
279	1
306	112
307	22
308	8
309	0
