Mass Spectrum: 4-Acetamido-4'-nitrodiphenylsulfide
Formula: C14H12N2O3S
CAS: 7467-51-8
Molecular weight: 288
m/z	intensity
42	11
43	999
44	8
45	52
46	6
47	2
49	5
50	82
51	33
52	28
53	19
54	8
55	1
57	3
58	9
59	2
60	3
62	25
63	103
64	33
65	28
66	5
67	3
69	71
70	45
71	13
72	3
74	18
75	16
76	42
77	17
78	16
80	105
82	25
83	2
84	4
85	3
86	5
87	3
88	4
89	10
90	28
91	13
92	0
93	16
95	18
96	77
97	26
99	9
101	3
102	7
104	9
105	5
106	9
108	21
109	2
110	1
111	0
113	4
115	21
116	5
117	4
119	1
120	1
121	3
122	18
123	34
124	200
125	18
126	12
127	13
128	8
129	3
130	3
132	1
133	20
134	6
136	3
137	1
138	2
139	32
140	10
141	2
143	6
145	6
146	2
147	7
149	5
150	4
152	6
153	0
154	11
156	6
158	3
159	2
160	6
161	1
162	1
164	1
165	2
166	7
167	42
168	6
170	6
171	62
172	14
173	4
174	0
175	0
182	0
183	17
184	23
185	0
186	8
187	0
188	14
189	1
190	0
196	4
197	3
198	3
199	70
200	51
201	8
202	3
213	1
214	5
216	15
218	0
219	0
225	0
226	0
229	1
230	1
231	0
242	3
245	10
246	116
247	17
248	8
249	0
258	1
272	1
273	0
288	107
289	18
290	6
291	0
