Mass Spectrum: 1,2-Oxaborolane, 2-ethyl-4,5-dimethyl-
Formula: C7H15BO
CAS: 74685-45-3
Molecular weight: 126
m/z	intensity
27	43
28	6
29	89
37	3
39	54
40	10
41	153
42	285
43	29
44	5
51	5
52	13
53	46
54	52
55	867
56	106
57	156
58	5
66	2
67	12
68	11
69	37
70	999
71	46
83	35
84	126
85	13
95	1
111	9
