Mass Spectrum: 2-Azetidinone, 3-methyl-1,4-diphenyl-
Formula: C16H15NO
CAS: 7468-12-4
Molecular weight: 237
m/z	intensity
50	20
51	70
52	20
63	40
64	30
65	40
75	10
76	30
77	410
78	110
79	10
89	50
90	20
91	180
92	10
102	20
103	60
104	90
105	30
115	100
116	40
117	480
118	999
119	130
120	10
152	20
180	180
181	150
182	30
237	50
238	10
