Mass Spectrum: 1,3,5-Pentanetriol, 3TMS derivative
Formula: C14H36O3Si3
CAS: 74685-20-4
Molecular weight: 336
m/z	intensity
24	0
25	1
26	2
27	7
28	10
29	17
30	4
31	3
34	2
35	1
38	3
39	12
40	3
41	19
42	3
43	20
44	10
45	62
46	7
47	16
48	1
49	2
51	1
52	11
53	7
54	6
55	55
56	5
57	9
58	11
59	51
60	4
61	9
62	1
63	0
65	2
66	7
67	36
68	5
69	6
70	3
71	4
72	20
73	896
74	75
75	206
76	9
77	10
78	0
79	0
81	2
82	0
83	5
84	5
85	14
86	1
87	7
88	2
89	5
90	1
91	2
92	1
94	1
96	3
97	0
98	2
99	8
100	0
101	28
102	6
103	999
104	81
105	37
106	2
107	0
110	0
111	1
112	0
113	4
115	13
116	15
117	9
118	3
119	6
120	0
121	0
122	2
125	0
126	1
127	14
128	3
129	46
130	5
131	29
132	4
133	56
134	6
135	6
136	1
137	0
139	0
140	0
141	26
142	7
143	38
144	5
145	3
147	312
148	47
149	36
150	5
151	3
153	1
154	19
155	72
156	219
157	58
158	13
159	5
160	1
161	2
163	3
164	1
168	0
169	2
173	1
174	0
175	4
176	1
177	27
178	5
179	2
187	0
189	11
190	3
191	4
192	1
194	1
203	5
205	3
206	1
207	3
208	2
209	0
214	0
215	1
217	30
218	8
219	160
220	34
221	23
222	1
231	11
232	2
233	0
237	1
245	4
246	8
247	1
248	1
268	0
281	0
283	0
321	19
