Mass Spectrum: Cyclopropane, 1-(5-hexenyl)-2-iodo-
Formula: C9H15I
CAS: 74685-40-8
Molecular weight: 250
m/z	intensity
26	36
27	138
28	46
29	129
30	2
31	1
32	0
35	1
36	11
37	2
38	7
39	247
40	42
41	722
42	39
43	33
44	1
45	1
49	1
50	6
51	16
52	17
53	163
54	242
55	426
56	22
57	16
58	0
59	1
60	0
62	0
63	3
64	0
65	36
66	32
67	539
68	75
69	217
70	12
71	2
73	2
74	0
75	1
76	0
77	32
78	10
79	118
80	43
81	999
82	76
83	8
84	1
85	0
87	0
91	18
92	2
93	17
94	8
95	35
96	128
97	10
103	1
105	4
106	1
107	13
108	4
109	2
117	1
120	1
121	1
122	8
123	84
124	10
127	20
128	36
140	0
141	3
142	0
152	0
153	1
154	19
155	4
166	3
167	20
168	2
180	16
181	6
183	1
185	0
193	0
196	2
207	1
209	0
234	1
