Mass Spectrum: Arabino-Hexos-2-ulose, 3,4,5,6-tetrakis-O-(trimethylsilyl)-, bis(dimethyl acetal)
Formula: C22H54O8Si4
CAS: 74685-71-5
Molecular weight: 558
m/z	intensity
24	1
25	0
26	1
27	4
28	33
29	10
30	4
31	6
33	0
34	0
38	1
39	6
40	1
41	12
42	0
43	19
44	20
45	88
46	5
47	11
48	1
50	1
51	0
52	3
53	4
54	2
55	25
56	2
57	3
58	9
59	79
60	6
61	8
62	1
63	0
64	0
66	3
67	3
68	4
69	1
71	6
72	19
73	999
74	87
75	86
76	5
77	2
78	1
79	0
81	1
82	1
83	20
84	2
85	9
87	4
88	3
89	94
90	8
91	5
93	2
95	1
96	1
97	1
98	1
99	3
100	0
101	13
102	48
103	172
104	21
105	21
106	6
107	4
108	1
109	1
110	0
111	2
113	3
114	1
115	5
116	5
117	190
118	20
119	23
120	3
121	0
122	1
123	0
124	1
125	1
126	0
127	5
128	1
129	16
130	52
131	40
132	5
133	74
134	9
135	6
136	1
137	0
138	0
141	0
143	22
144	3
145	4
146	16
147	394
148	56
149	38
150	6
151	1
152	0
154	1
156	1
157	4
158	0
159	18
160	1
161	31
162	52
163	27
164	9
165	0
166	0
168	3
169	0
170	0
173	1
174	1
175	5
176	1
177	13
178	1
179	1
181	0
184	0
185	1
186	1
187	30
188	5
189	17
190	2
191	6
193	0
195	1
196	0
197	0
198	0
199	0
201	1
202	1
203	3
204	13
205	267
206	50
207	25
208	5
209	2
212	0
213	0
215	2
216	1
217	65
218	15
219	17
220	5
221	3
222	0
223	0
225	0
229	0
230	0
231	1
233	4
234	244
235	62
236	25
237	5
238	1
243	0
245	0
246	0
247	3
248	1
249	0
250	0
256	0
261	31
262	5
263	6
264	2
267	0
274	0
275	0
276	0
277	2
278	0
279	0
283	0
290	0
291	2
292	0
293	0
294	0
299	1
306	0
307	7
308	3
309	0
321	2
322	0
323	0
335	0
351	12
352	3
353	2
355	1
371	0
