Mass Spectrum: 1-Pentene, 5-bromo-5,5-difluoro-
Formula: C5H7BrF2
CAS: 74685-91-9
Molecular weight: 184
m/z	intensity
26	43
27	208
28	72
29	14
30	0
31	5
32	1
33	5
34	0
35	0
36	2
37	1
38	7
39	109
40	22
41	124
42	5
43	1
44	2
45	2
46	1
47	2
49	0
50	4
51	234
52	13
53	60
54	37
55	9
56	1
57	21
58	5
59	54
60	2
61	0
62	0
63	2
64	27
65	22
66	1
67	0
69	3
70	2
71	15
72	1
73	0
74	0
75	33
76	21
77	999
78	34
79	1
80	2
81	2
82	2
83	18
84	32
85	103
86	8
87	0
88	5
89	13
90	6
91	11
92	1
93	6
94	0
95	6
96	0
101	7
102	5
103	78
104	466
105	209
106	12
107	59
108	6
109	59
110	1
111	0
113	0
119	1
120	2
121	1
122	2
129	0
131	0
137	5
139	5
142	0
155	0
156	17
157	0
158	16
159	0
167	0
184	61
185	3
186	56
187	3
