Mass Spectrum: Silane, ethenylethylmethyl[[5-methyl-2-(1-methylethyl)cyclohexyl]oxy]-
Formula: C15H30OSi
CAS: 74685-34-0
Molecular weight: 254
m/z	intensity
26	14
27	8
28	9
29	10
30	0
32	1
34	0
36	0
37	0
38	1
39	7
40	3
41	44
42	3
43	33
45	165
46	1
47	6
48	1
49	1
50	2
51	1
52	0
53	4
54	3
55	56
56	7
57	11
58	1
59	3
60	12
61	174
62	10
63	6
65	0
66	1
67	30
68	6
69	39
70	9
71	188
72	22
73	52
74	8
75	10
76	1
77	3
78	1
79	6
80	9
81	205
82	38
83	20
84	2
85	6
86	5
87	999
88	81
89	195
90	16
91	7
92	1
93	8
94	9
95	89
96	18
97	7
98	3
99	145
100	18
101	111
102	9
103	5
104	0
105	1
107	3
108	1
109	10
110	6
111	6
112	2
113	24
114	5
115	11
116	1
117	3
118	0
119	0
120	0
121	5
122	1
123	28
124	2
125	9
126	2
127	20
128	4
129	10
130	1
131	1
135	1
136	8
137	214
138	81
139	12
140	3
141	27
142	8
143	8
144	0
145	0
147	0
151	0
153	4
154	2
155	10
156	2
157	1
161	0
163	0
164	0
165	1
167	6
168	2
169	341
170	51
171	14
172	1
173	0
175	0
176	0
179	0
181	3
182	1
183	18
184	3
185	1
193	0
195	1
196	0
197	11
198	4
199	2
200	0
202	0
207	3
208	0
209	5
210	1
211	4
212	1
213	0
215	0
223	1
224	1
225	648
226	139
227	40
228	6
229	0
236	0
237	0
238	0
239	29
240	6
241	1
242	0
243	0
253	1
254	16
255	3
256	1
