Mass Spectrum: Ethanamine, N,N-diethyl-2-[2-(2-methoxyethoxy)ethoxy]-
Formula: C11H25NO3
CAS: 74685-44-2
Molecular weight: 219
m/z	intensity
26	8
27	9
29	34
30	37
31	18
32	1
36	1
39	2
40	0
41	6
42	16
43	12
44	32
45	18
46	0
52	0
54	1
55	1
56	25
57	14
58	65
59	43
60	1
63	0
65	0
67	1
68	1
69	1
70	10
71	8
72	20
73	5
74	0
78	0
79	0
80	0
81	0
82	0
83	0
84	17
85	5
86	999
87	63
88	3
89	2
90	0
91	0
95	0
96	0
97	0
98	2
99	3
100	42
101	9
102	1
103	2
105	0
108	0
110	0
113	0
114	3
115	1
116	1
117	1
118	0
123	0
128	0
129	0
130	1
133	0
143	0
144	8
145	1
146	2
147	0
149	0
158	0
160	1
161	0
174	0
186	0
188	3
189	0
204	7
205	1
208	0
218	3
219	8
220	1
