Mass Spectrum: Butanedioic acid, 2,3-dimethoxy-, diethyl ester
Formula: C10H18O6
CAS: 74685-84-0
Molecular weight: 234
m/z	intensity
26	96
27	161
28	650
29	718
30	33
31	137
32	23
33	242
34	2
37	0
38	1
39	7
40	5
41	18
42	29
43	97
44	82
45	856
46	25
47	38
49	1
50	5
51	2
52	1
53	33
54	11
55	20
56	7
57	67
58	31
59	144
60	12
61	618
62	15
63	5
66	2
67	1
68	3
69	54
70	6
71	21
72	58
73	203
74	212
75	123
76	9
77	202
78	6
79	2
81	2
82	3
84	9
85	240
86	14
87	44
88	203
89	467
90	56
91	16
92	1
94	2
95	7
96	5
97	1
98	2
99	40
100	11
101	43
102	36
103	140
104	65
105	204
106	8
107	1
110	7
111	1
113	4
114	1
115	24
116	8
117	999
118	136
119	114
120	6
121	1
126	4
127	23
128	7
129	55
130	55
131	368
132	133
133	607
134	39
135	6
142	4
143	6
144	2
145	6
146	4
147	44
148	4
149	1
156	11
157	17
158	3
159	11
160	6
161	184
162	16
163	2
167	0
173	68
174	7
175	3
178	0
179	1
187	1
188	4
189	1
190	2
191	1
202	16
203	2
204	4
220	3
234	21
235	3
