Mass Spectrum: 2-Furanacetaldehyde, tetrahydro-.alpha.,3,4,5-tetrakis[(trimethylsilyl)oxy]-
Formula: C18H42O6Si4
CAS: 74685-70-4
Molecular weight: 466
m/z	intensity
22	0
23	0
24	0
25	2
27	4
28	17
29	5
30	2
31	4
33	0
34	1
35	0
38	0
39	2
40	1
41	2
42	1
43	8
44	18
45	73
46	4
47	17
48	1
49	2
51	0
52	1
53	0
54	2
55	9
56	1
57	2
58	4
59	22
60	4
61	11
62	1
64	1
65	2
66	2
67	4
68	6
69	8
70	2
71	3
72	13
73	999
74	81
75	150
76	9
77	12
78	0
80	1
81	7
82	1
83	3
84	2
85	4
86	1
87	4
88	1
89	6
90	1
91	0
92	1
93	2
94	2
95	3
96	4
97	4
98	1
99	4
100	1
101	14
102	10
103	73
104	7
105	4
106	2
107	1
108	0
109	0
111	2
112	1
113	14
114	1
115	4
116	17
117	16
118	3
119	7
120	1
121	0
122	0
123	1
124	0
125	2
126	1
127	6
128	1
129	63
130	12
131	46
132	4
133	45
134	6
135	5
136	1
140	2
141	4
142	8
143	8
144	1
145	5
146	3
147	160
148	21
149	18
150	2
151	1
152	0
153	1
154	1
155	14
156	6
157	32
158	7
159	3
161	3
162	1
163	6
164	2
165	1
167	1
168	0
169	14
170	9
171	1
172	0
173	4
175	5
176	3
177	7
179	0
180	0
181	1
182	1
183	1
185	1
187	1
189	44
190	12
191	42
192	9
193	4
195	0
197	21
198	4
201	2
202	2
203	6
204	283
205	60
206	22
207	3
209	0
211	0
212	0
213	1
214	0
215	16
216	5
217	148
218	36
219	21
220	19
221	8
222	2
223	1
225	0
228	2
229	7
230	171
231	46
232	16
233	4
234	0
235	0
236	0
237	0
238	0
239	0
241	0
242	0
243	23
244	5
245	15
246	4
247	6
248	2
249	1
251	0
252	0
257	10
258	91
259	31
260	10
261	2
262	0
265	0
267	0
271	18
272	4
273	1
275	0
279	2
280	1
282	0
283	0
285	0
286	0
287	2
290	0
291	1
292	11
293	3
294	1
295	0
302	0
303	5
304	1
305	5
306	1
307	1
317	1
319	3
320	1
322	0
326	0
329	0
330	0
331	4
332	2
333	3
334	1
335	0
336	0
345	1
346	2
347	9
348	4
349	1
350	0
355	1
356	0
359	0
361	6
362	1
363	1
364	0
365	0
371	0
376	5
377	1
432	0
441	0
464	0
