Mass Spectrum: Cyclopropanecarboxylic acid, 2,2-dimethyl-3-(2-propenyl)-
Formula: C9H14O2
CAS: 74685-76-0
Molecular weight: 154
m/z	intensity
26	39
27	132
28	70
29	109
30	3
31	15
32	1
35	0
36	3
37	2
38	4
39	230
40	45
41	454
42	36
43	324
44	14
45	31
46	1
47	3
48	1
49	1
50	7
51	24
52	16
53	111
54	235
55	160
56	24
57	50
58	5
59	84
60	5
61	0
62	0
63	5
64	2
65	67
66	37
67	618
68	56
69	64
70	10
71	46
72	3
73	5
74	0
75	1
76	0
77	81
78	15
79	69
80	16
81	55
82	81
83	50
84	8
85	67
86	7
87	1
88	1
89	1
90	0
91	59
92	8
93	97
94	24
95	368
96	38
97	35
98	5
99	10
100	10
101	4
102	0
103	2
104	0
105	5
106	1
107	10
108	30
109	123
110	14
111	37
112	21
113	999
114	64
115	6
116	0
117	0
118	0
119	0
120	0
121	14
122	2
123	4
124	1
125	9
126	4
127	0
134	0
135	1
136	6
137	2
138	0
139	35
140	3
150	0
153	3
154	2
