Mass Spectrum: Phosphine, (1,1-dimethylethyl)methyl(1-methylethyl)-
Formula: C8H19P
CAS: 74685-89-5
Molecular weight: 146
m/z	intensity
27	69
28	17
29	239
30	4
32	0
36	6
37	0
38	2
39	58
40	16
41	452
42	30
43	371
44	11
45	47
46	26
47	42
48	557
49	185
50	3
51	0
53	6
54	1
55	71
56	24
57	999
58	44
59	64
60	8
61	200
62	145
63	11
64	7
69	7
71	9
72	3
73	17
74	7
75	88
76	9
77	0
78	0
79	0
80	2
83	6
85	0
87	5
88	7
89	65
90	834
91	72
92	1
103	18
104	29
105	1
106	4
117	1
118	20
119	0
120	0
123	2
131	26
132	3
145	1
146	303
147	26
