Mass Spectrum: Dispiro[2.1.2.2]nonan-8-one
Formula: C9H12O
CAS: 74685-57-7
Molecular weight: 136
m/z	intensity
24	1
25	3
26	53
27	344
28	98
29	64
30	0
31	2
32	1
33	1
34	1
35	2
36	1
37	17
38	51
39	540
40	200
41	248
42	32
43	48
44	6
45	9
46	3
47	1
48	3
49	11
50	90
51	197
52	188
53	271
54	236
55	117
56	9
57	6
58	3
60	5
61	7
62	16
63	46
64	15
65	142
66	141
67	139
68	68
69	14
70	3
71	2
72	0
73	3
74	14
75	27
76	7
77	410
78	167
79	999
80	451
81	82
82	49
83	11
84	2
85	2
86	6
87	2
88	1
89	13
90	7
91	366
92	70
93	321
94	148
95	34
96	27
97	1
98	0
99	0
100	1
102	1
103	31
104	7
105	58
106	59
107	99
108	409
109	40
110	4
112	0
114	0
115	9
116	4
117	22
118	6
119	15
120	4
121	388
122	30
123	1
126	0
132	4
133	29
134	119
135	206
136	259
137	26
138	1
