Mass Spectrum: 2,5,9-Tetradecatriene, 3,12-diethyl-
Formula: C18H32
CAS: 74685-87-3
Molecular weight: 248
m/z	intensity
26	11
27	34
28	82
29	97
30	2
32	8
37	0
38	1
39	33
40	5
41	255
42	21
43	442
44	16
45	2
48	0
49	0
50	1
51	3
52	2
53	51
54	56
55	394
56	25
57	112
58	6
59	1
60	0
61	0
63	0
64	0
65	12
66	18
67	380
68	77
69	327
70	51
71	97
72	6
73	1
74	1
75	1
76	0
77	35
78	11
79	132
80	96
81	999
82	131
83	193
84	21
85	10
86	1
89	0
90	0
91	34
92	12
93	157
94	67
95	253
96	95
97	31
98	4
99	1
100	0
101	0
103	0
104	0
105	11
106	4
107	69
108	30
109	93
110	31
111	8
112	1
113	0
115	0
117	1
118	0
119	6
120	3
121	56
122	56
123	698
124	378
125	38
126	2
127	0
128	0
129	0
131	0
132	0
133	3
134	1
135	61
136	13
137	7
138	49
139	6
140	0
145	0
147	2
148	1
149	40
150	22
151	9
152	5
153	0
161	0
162	1
163	49
164	30
165	9
166	2
167	1
168	0
175	0
176	1
177	25
178	8
179	1
180	0
181	0
191	0
192	0
193	1
194	1
205	0
206	0
207	0
219	19
220	4
221	0
233	0
247	0
248	26
249	5
250	0
