Mass Spectrum: 2-Pentanol, 3-chloro-2-methyl-
Formula: C6H13ClO
CAS: 74685-49-7
Molecular weight: 136
m/z	intensity
23	0
25	1
26	8
27	83
28	28
29	166
30	1
31	127
33	0
34	0
35	1
36	20
37	4
38	13
39	78
40	13
41	284
42	34
43	813
44	17
45	40
46	0
49	4
50	5
51	9
52	3
53	18
54	5
55	51
56	52
57	171
58	19
59	999
60	35
61	3
62	2
63	1
64	0
65	6
66	0
67	31
68	2
69	73
70	6
71	38
72	105
73	6
75	2
76	0
77	8
78	0
79	10
80	1
81	4
82	9
83	16
84	26
85	20
86	0
87	1
89	0
90	0
91	0
92	2
94	1
95	0
96	0
98	6
99	1
100	22
101	1
103	3
105	1
107	0
117	0
121	39
122	1
123	12
124	0
