Mass Spectrum: 5-Eicosyne
Formula: C20H38
CAS: 74685-31-7
Molecular weight: 278
m/z	intensity
22	1
23	0
24	0
25	2
26	8
27	106
28	17
29	249
30	6
31	1
32	1
33	0
35	1
37	5
38	2
39	77
40	17
41	542
42	62
43	538
44	6
45	0
46	0
47	2
48	3
49	2
50	5
51	13
52	29
53	97
54	672
55	618
56	86
57	251
58	11
59	0
60	1
61	1
62	1
63	5
64	2
65	36
66	50
67	785
68	291
69	309
70	48
71	64
72	4
73	1
74	1
75	3
76	2
77	54
78	25
79	131
80	84
81	999
82	522
83	264
84	27
85	27
86	2
87	0
88	0
89	1
90	0
91	42
92	17
93	62
94	42
95	585
96	397
97	151
98	14
99	2
103	2
104	4
105	16
106	6
107	19
108	12
109	179
110	108
111	36
112	5
113	0
115	1
116	1
117	5
118	2
119	4
120	2
121	13
122	6
123	120
124	43
125	12
126	2
128	1
129	2
131	2
133	2
134	1
135	10
136	6
137	106
138	67
139	10
140	1
141	0
143	0
145	0
147	0
148	0
149	3
150	1
151	24
152	17
153	2
163	1
165	7
166	4
167	0
177	0
179	2
180	3
193	0
194	3
207	4
208	5
209	0
221	9
222	3
235	1
236	1
274	0
276	0
278	3
279	0
