Mass Spectrum: 2-Cyclopropylethenol, TMS derivative
Formula: C8H16OSi
CAS: 74685-52-2
Molecular weight: 156
m/z	intensity
24	0
25	1
26	10
27	58
28	69
29	49
30	12
31	24
33	1
34	1
35	2
36	4
37	7
38	13
39	143
40	45
41	148
42	31
43	206
44	102
45	322
46	23
47	143
48	8
49	7
50	9
51	13
52	5
53	19
54	6
55	35
56	11
57	33
58	26
59	159
60	24
61	61
62	23
63	63
64	6
65	24
66	42
67	48
68	5
69	59
70	28
71	57
72	82
73	999
74	83
75	969
76	67
77	36
78	2
79	4
80	2
81	5
82	7
83	14
84	12
85	38
86	16
87	7
88	1
89	1
90	0
91	3
93	2
94	1
95	6
96	2
97	35
98	8
99	398
100	47
101	28
102	3
103	8
104	0
105	0
107	1
109	1
110	1
111	17
112	4
113	35
114	5
115	41
116	5
117	2
123	10
124	1
125	13
126	4
127	29
128	17
129	2
130	1
131	1
136	0
137	0
138	0
139	3
140	3
141	396
142	48
143	14
144	1
146	0
147	11
148	2
149	1
154	1
155	44
156	102
157	16
158	4
