Mass Spectrum: Phosphoric acid, 2,2-diethoxyethyl dimethyl ester
Formula: C8H19O6P
CAS: 74685-53-3
Molecular weight: 242
m/z	intensity
27	111
28	136
29	214
30	9
31	91
33	14
37	1
38	3
39	23
40	6
41	35
42	20
43	116
44	104
45	51
46	3
47	740
48	9
49	7
50	8
51	5
52	1
53	7
54	12
55	22
56	2
57	10
58	1
59	9
60	25
61	28
62	2
63	4
64	1
65	16
66	11
67	21
68	4
69	8
70	4
71	2
72	72
73	10
74	2
75	629
76	21
77	7
78	5
79	114
80	39
81	33
82	3
83	1
84	1
87	7
88	3
89	22
91	2
92	0
93	9
94	35
95	72
96	23
97	3
98	0
99	2
100	0
101	0
102	1
103	999
104	58
105	5
106	0
107	2
108	1
109	207
110	201
111	12
112	1
113	21
116	11
117	1
119	1
120	0
122	1
123	5
124	20
125	3
126	2
127	231
128	5
129	1
131	1
136	1
137	91
138	5
139	18
140	58
141	43
142	23
143	1
144	1
145	4
146	1
149	3
151	4
152	1
153	15
154	1
155	14
166	1
167	5
168	8
169	337
170	16
171	4
181	2
183	1
196	3
197	356
198	24
199	3
211	1
213	1
