Mass Spectrum: D-Gluco-Hexodialdodifuranoside, dimethyl 2,5-bis-O-(trimethylsilyl)-
Formula: C14H30O6Si2
CAS: 74685-72-6
Molecular weight: 350
m/z	intensity
25	1
26	1
27	8
28	36
29	37
30	4
31	34
33	6
34	0
35	0
38	2
39	9
40	6
41	24
42	5
43	35
44	37
45	212
46	12
47	16
48	1
50	0
51	3
52	4
53	7
54	4
55	18
56	4
57	10
58	13
59	147
60	15
61	30
62	2
63	3
64	1
65	2
66	3
67	6
68	12
69	9
70	5
71	16
72	20
73	999
74	89
75	375
76	16
77	9
78	2
79	2
81	5
82	2
83	13
84	2
85	9
86	4
87	5
88	3
89	230
90	25
91	19
94	2
95	1
96	2
97	10
98	5
99	26
100	3
101	41
102	34
103	43
104	5
105	52
106	4
109	2
111	9
112	3
113	23
114	6
115	23
116	83
117	27
118	16
119	8
120	1
121	3
123	2
125	3
126	2
127	11
128	7
129	104
130	25
131	239
132	28
133	48
134	7
146	10
147	648
148	134
149	33
150	11
155	14
156	11
157	52
158	10
159	92
160	12
161	14
162	22
163	8
166	0
167	1
169	20
170	7
171	6
172	9
173	11
174	3
175	3
185	14
186	5
187	18
188	7
189	14
190	2
191	11
192	2
193	2
196	2
197	27
198	4
199	4
200	84
201	27
202	11
203	3
204	3
205	3
208	0
213	24
214	3
215	15
216	4
217	100
218	24
219	10
220	1
221	1
227	0
228	3
229	8
230	81
231	16
232	6
233	3
234	12
236	1
243	11
244	2
245	8
247	2
248	0
257	5
258	2
259	4
260	2
261	1
270	1
271	14
272	4
274	0
275	1
281	0
287	5
288	1
289	4
290	8
292	0
295	1
303	5
304	1
317	1
318	1
319	2
335	0
