Mass Spectrum: 2H-1,3,2-Oxazaborine, 2-ethyltetrahydro-4-methyl-3-(1-methylethyl)-6-phenyl-
Formula: C15H24BNO
CAS: 74685-88-4
Molecular weight: 245
m/z	intensity
25	3
26	14
27	80
28	74
29	26
30	2
31	1
35	1
36	1
37	4
38	4
39	37
40	19
41	96
42	141
43	195
44	28
45	0
46	2
48	1
49	3
50	15
51	53
52	22
53	42
54	82
55	19
56	18
57	17
58	3
59	2
61	3
62	3
63	12
64	9
65	17
66	5
67	12
68	46
69	40
70	999
71	47
72	4
73	6
75	4
76	9
77	67
78	66
79	16
80	12
81	14
82	52
83	15
84	69
85	32
86	8
87	2
89	13
90	11
91	148
92	6
93	8
94	5
95	6
96	26
97	5
98	13
99	6
101	13
102	16
103	103
104	292
105	61
106	5
107	1
108	3
109	3
110	3
111	13
112	38
113	3
114	5
115	75
116	13
117	27
118	5
119	0
120	1
123	8
124	30
125	8
126	15
127	4
128	12
129	9
130	10
131	32
132	46
133	22
134	2
137	2
138	2
140	1
141	4
142	8
143	2
144	4
145	1
146	6
147	2
148	0
151	2
152	3
153	3
154	1
155	1
156	2
157	1
159	1
160	1
161	1
164	0
166	2
167	6
168	3
169	2
172	3
173	4
174	72
175	8
176	2
179	1
182	1
183	1
185	2
186	2
187	2
188	6
189	1
197	1
199	1
200	2
201	3
202	5
203	1
207	0
208	1
213	2
214	3
215	4
217	3
218	1
219	1
222	1
224	1
226	0
227	5
228	9
229	254
230	989
231	159
232	12
237	1
239	1
243	4
244	19
245	37
246	7
247	1
