Mass Spectrum: 2-Azetidinone, 3,3-dimethyl-4-phenyl-1-(phenylmethyl)-
Formula: C18H19NO
CAS: 7468-30-6
Molecular weight: 265
m/z	intensity
65	70
77	70
91	999
92	110
93	10
104	60
115	60
117	630
118	50
131	90
132	999
133	110
134	10
194	150
195	20
196	230
197	30
264	10
265	20
