Mass Spectrum: Methyl benzoate, imine
Formula: C8H9NO
CAS: 7471-86-5
Molecular weight: 135
m/z	intensity
27	35
29	25
39	55
44	18
49	16
50	159
51	308
52	68
58	40
63	22
64	18
65	25
74	48
75	50
76	99
77	470
78	69
79	11
90	12
91	113
92	51
102	11
103	57
104	999
105	256
106	28
116	22
119	29
121	17
134	16
135	910
136	129
137	29
138	4
