Mass Spectrum: 2-(3-Oxo-1,3-diphenylpropyl)-isoindol-1,3-dione
Formula: C23H17NO3
CAS: 74726-61-7
Molecular weight: 355
m/z	intensity
12	2
14	2
15	6
16	2
17	8
18	25
26	5
27	38
28	28
29	48
30	3
31	4
37	3
38	7
39	39
40	5
41	9
42	15
43	11
44	13
45	3
50	134
51	247
52	26
53	10
54	1
55	4
56	2
57	3
60	2
62	6
63	26
64	13
65	33
66	5
68	2
69	3
70	5
71	1
73	3
74	30
75	62
76	273
77	999
78	122
79	9
82	2
83	2
86	2
87	3
88	4
89	39
90	26
91	50
92	7
96	2
101	10
102	125
103	544
104	299
105	826
106	73
107	5
115	9
116	10
118	19
119	9
120	5
125	3
126	4
127	6
128	7
129	16
130	461
131	107
132	73
133	94
134	8
139	5
140	2
144	2
145	3
146	16
147	59
148	189
149	22
150	5
151	17
152	45
153	15
154	3
160	5
163	2
164	5
165	27
166	6
167	2
172	40
173	7
174	3
176	7
177	10
178	24
179	28
180	15
181	16
182	3
189	3
190	4
191	5
192	6
193	19
194	6
195	4
203	5
204	15
205	8
206	11
207	182
208	293
209	52
210	5
220	12
221	50
222	41
223	12
224	2
232	33
233	7
234	3
236	283
237	49
238	6
248	10
249	161
250	581
251	105
252	12
276	3
277	23
278	19
279	3
280	3
281	1
282	1
298	2
308	3
309	5
310	1
319	2
323	27
324	6
326	2
337	5
338	2
355	281
356	74
357	11
358	1
