Mass Spectrum: .beta.-Methyl xyloside
Formula: C6H12O5
CAS: 7473-45-2
Molecular weight: 164
m/z	intensity
42	162
43	233
44	106
45	122
47	14
49	1
51	2
53	2
55	49
57	196
58	11
60	999
61	296
62	1
63	1
65	1
66	0
68	13
69	47
71	148
73	411
74	316
75	17
77	5
79	1
83	2
85	22
86	72
87	36
89	5
91	12
93	3
97	2
99	1
100	26
101	0
102	2
103	9
105	9
113	0
114	23
116	21
117	1
120	1
127	0
128	1
131	0
133	34
146	1
147	0
163	0
164	1
165	0
