Mass Spectrum: 2-Propen-1-one, 3-(2-nitrophenyl)-1-phenyl-
Formula: C15H11NO3
CAS: 7473-93-0
Molecular weight: 253
m/z	intensity
51	187
52	31
62	26
63	71
64	24
65	25
74	42
75	82
76	132
77	570
78	49
86	4
87	17
88	79
89	150
90	28
91	2
92	12
101	82
102	296
103	68
104	26
105	999
106	76
115	21
116	45
122	11
128	25
129	7
130	49
143	13
144	183
145	17
150	13
151	38
152	32
164	5
165	26
175	11
176	79
