Mass Spectrum: 2-Dodecen-4-yne, (Z)-
Formula: C12H20
CAS: 74744-37-9
Molecular weight: 164
m/z	intensity
22	0
23	1
24	0
25	3
26	11
27	215
28	22
29	274
30	5
31	9
33	2
34	2
35	2
36	0
37	3
38	11
39	199
40	35
41	389
42	45
43	357
44	23
45	6
46	1
47	1
48	1
49	2
50	26
51	104
52	60
53	120
54	38
55	297
56	43
57	54
58	7
59	5
60	1
61	1
62	6
63	32
64	14
65	84
66	143
67	210
68	58
69	44
70	17
71	7
72	3
73	2
74	5
75	27
76	9
77	352
78	100
79	999
80	149
81	364
82	47
83	17
84	4
85	2
86	0
87	1
89	11
90	5
91	212
92	41
93	357
94	92
95	34
96	14
97	4
98	1
99	0
101	0
102	0
103	7
104	2
105	48
106	11
107	199
108	50
109	18
110	3
111	2
112	1
115	2
116	0
117	2
118	0
119	6
120	3
121	141
122	80
123	10
124	0
128	0
129	0
133	1
134	0
135	52
136	6
137	0
149	9
150	1
152	0
162	0
163	0
164	47
165	6
