Mass Spectrum: 2-Dodecen-4-yne, (E)-
Formula: C12H20
CAS: 74744-38-0
Molecular weight: 164
m/z	intensity
22	0
23	1
24	0
25	2
26	11
27	218
28	18
29	287
30	7
33	2
34	2
35	2
36	0
38	9
39	195
40	35
41	394
42	44
43	350
44	18
47	1
48	1
49	3
50	25
51	108
52	63
53	123
54	34
55	301
56	43
57	63
58	9
61	1
62	6
63	33
64	14
65	82
66	137
67	205
68	57
69	47
70	16
71	17
72	3
73	2
75	29
76	9
77	365
78	103
79	999
80	145
81	455
82	53
83	17
84	5
85	6
86	1
87	1
88	1
89	12
90	5
91	233
92	42
93	349
94	95
95	38
96	15
97	4
98	1
99	0
101	0
102	0
103	8
104	3
105	56
106	14
107	226
108	76
109	19
110	3
111	1
112	1
113	0
115	2
116	0
117	2
118	0
119	7
120	3
121	133
122	81
123	10
128	0
133	1
134	0
135	46
136	5
137	0
149	9
150	1
152	0
162	1
163	0
164	53
165	6
