Mass Spectrum: 5-Tetradecen-3-yne, (Z)-
Formula: C14H24
CAS: 74744-47-1
Molecular weight: 192
m/z	intensity
23	1
24	0
25	3
26	19
27	225
28	40
29	343
30	8
33	2
34	2
35	2
36	2
37	9
38	13
39	198
40	31
41	436
42	81
43	353
44	65
47	2
48	1
49	5
50	22
51	56
52	36
53	105
54	84
55	247
56	92
57	222
58	16
61	2
62	4
63	21
64	9
65	94
66	44
67	208
68	59
69	104
70	46
71	24
72	6
73	6
75	19
76	7
77	271
78	124
79	999
80	438
81	186
82	85
83	35
84	10
85	9
86	1
87	1
88	1
89	10
90	5
91	233
92	45
93	277
94	60
95	80
96	27
97	10
98	13
99	2
101	0
102	0
103	6
104	2
105	33
106	13
107	169
108	64
109	36
110	16
111	2
112	1
114	1
115	3
116	1
117	4
118	1
119	8
120	3
121	93
122	24
123	7
124	4
128	1
129	0
131	0
133	1
134	0
135	44
136	11
137	1
138	2
139	0
145	0
147	0
149	33
150	5
151	0
161	0
163	38
164	5
165	0
177	1
178	0
190	1
191	0
192	50
193	7
