Mass Spectrum: 3-Octen-5-yne, (Z)-
Formula: C8H12
CAS: 74744-34-6
Molecular weight: 108
m/z	intensity
26	78
27	223
28	48
29	65
30	1
31	1
32	1
36	1
37	17
38	49
39	389
40	94
41	215
42	25
43	8
44	18
45	7
47	0
48	0
49	10
50	96
51	206
52	87
53	141
54	44
55	44
56	4
57	3
58	2
59	3
60	1
61	14
62	43
63	99
64	26
65	239
66	153
67	81
68	12
69	1
72	1
73	4
74	23
75	19
76	8
77	999
78	166
79	451
80	67
81	12
82	2
83	1
84	0
85	3
86	5
87	4
88	1
89	17
90	4
91	629
92	63
93	510
94	37
95	1
98	2
101	1
102	1
103	8
104	1
105	25
106	3
107	31
108	774
109	61
110	1
