Mass Spectrum: 6-Tridecen-4-yne, (Z)-
Formula: C13H22
CAS: 74744-45-9
Molecular weight: 178
m/z	intensity
23	1
24	0
25	2
26	7
27	147
28	17
29	222
30	5
31	0
33	1
34	1
35	1
36	0
38	5
39	148
40	20
41	287
42	35
43	271
44	9
45	1
46	1
47	1
48	1
49	1
50	13
51	55
52	45
53	62
54	47
55	196
56	23
57	35
58	4
59	1
60	0
61	1
62	4
63	23
64	10
65	125
66	63
67	160
68	31
69	42
70	7
71	11
72	1
73	1
74	3
75	25
76	8
77	192
78	81
79	999
80	138
81	103
82	22
83	9
84	2
85	2
86	1
87	1
88	1
89	10
90	5
91	202
92	41
93	319
94	293
95	58
96	15
97	4
98	0
101	0
102	2
103	11
104	4
105	43
106	8
107	109
108	22
109	8
110	7
111	0
112	0
115	5
116	1
117	4
118	1
119	5
120	3
121	56
122	20
123	4
124	1
125	1
126	0
127	0
128	1
129	1
130	0
131	1
132	0
133	3
134	1
135	66
136	11
137	1
141	0
142	0
143	1
145	0
147	1
149	29
150	5
151	0
152	0
153	0
155	0
163	3
164	0
165	1
166	0
170	0
176	1
178	87
179	12
180	1
