Mass Spectrum: 5-Undecen-3-yne, (Z)-
Formula: C11H18
CAS: 74744-30-2
Molecular weight: 150
m/z	intensity
23	0
24	0
25	2
26	9
27	161
28	9
29	203
30	4
31	1
33	2
34	3
35	1
36	0
37	5
38	10
39	186
40	27
41	279
42	30
43	74
45	0
46	1
47	1
48	1
49	2
50	21
51	75
52	46
53	74
54	26
55	120
56	11
57	31
58	4
59	1
60	0
61	2
62	7
63	30
64	11
65	114
66	35
67	100
68	17
69	12
70	4
71	2
72	1
73	1
74	5
75	24
76	8
77	351
78	121
79	999
80	355
81	58
82	17
83	6
84	2
85	0
86	0
87	1
88	0
89	9
90	4
91	227
92	31
93	204
94	27
95	15
96	7
97	1
101	0
102	1
103	6
104	2
105	26
106	6
107	81
108	26
109	7
110	0
115	3
116	0
117	2
119	4
120	1
121	84
122	11
123	0
128	0
129	1
131	0
133	0
135	13
136	1
148	1
150	113
151	14
152	0
