Mass Spectrum: 3-Undecen-5-yne, (Z)-
Formula: C11H18
CAS: 74744-27-7
Molecular weight: 150
m/z	intensity
22	0
23	1
24	0
25	4
26	20
27	303
28	27
29	419
30	10
31	4
33	2
34	3
35	3
36	0
38	19
39	333
40	45
41	543
42	83
43	351
44	4
45	2
46	2
47	4
48	3
49	5
50	38
51	153
52	87
53	131
54	33
55	416
56	58
57	151
58	11
59	3
60	1
61	4
62	15
63	58
64	19
65	163
66	62
67	291
68	54
69	73
70	25
71	77
72	7
73	2
74	6
75	32
76	10
77	459
78	118
79	999
80	130
81	105
82	41
83	17
84	5
85	1
86	1
87	2
88	1
89	19
90	8
91	334
92	48
93	485
94	78
95	243
96	22
97	2
98	3
99	0
101	0
102	2
103	10
104	3
105	51
106	13
107	94
108	33
109	15
110	0
112	2
113	0
115	5
116	1
117	3
118	0
119	8
120	3
121	174
122	21
123	1
128	1
129	1
131	1
133	0
134	0
135	78
136	5
141	0
148	1
149	5
150	118
151	16
152	0
