Mass Spectrum: 6-Hexadecen-4-yne, (E)-
Formula: C16H28
CAS: 74744-52-8
Molecular weight: 220
m/z	intensity
22	1
23	0
26	9
27	161
28	86
29	345
30	7
31	0
33	2
34	2
36	3
37	7
38	5
39	152
40	18
41	432
42	52
43	370
44	83
45	1
46	1
47	1
48	2
49	2
50	13
51	53
52	42
53	62
54	75
55	260
56	44
57	141
58	9
59	1
60	0
61	2
62	3
63	23
64	10
65	125
66	65
67	241
68	47
69	94
70	20
71	40
72	5
73	2
74	3
75	21
76	11
77	184
78	103
79	999
80	162
81	175
82	67
83	46
84	8
85	5
86	0
87	3
88	4
89	13
90	8
91	269
92	69
93	328
94	394
95	121
96	46
97	16
98	3
100	1
101	5
102	4
103	14
104	9
105	87
106	16
107	185
108	44
109	37
110	7
111	1
112	1
113	0
115	13
116	5
117	24
118	6
119	16
120	11
121	148
122	46
123	13
124	7
125	1
127	2
128	15
129	17
130	5
131	11
132	4
133	9
134	2
135	62
136	13
137	5
138	2
141	4
142	5
143	4
145	4
146	1
147	1
149	31
150	7
151	3
152	5
153	3
154	2
155	1
157	1
159	1
161	1
162	0
163	25
164	5
165	4
166	0
167	2
173	0
174	0
175	1
176	2
177	31
178	7
179	1
180	2
181	1
187	0
189	2
190	0
191	7
192	2
199	1
200	1
202	6
203	4
204	4
205	2
206	2
216	2
218	5
220	64
221	15
222	1
