Mass Spectrum: 1,3-Dithiane, 2,2'-[(3,4-diphenyl-1,2-cyclobutanediyl)bis(methylene)]bis-
Formula: C26H32S4
CAS: 74744-59-5
Molecular weight: 472
m/z	intensity
33	5
34	2
38	0
39	2
41	11
42	1
43	0
45	9
46	3
47	4
48	0
50	0
51	0
52	0
53	0
55	0
58	0
59	3
60	1
61	5
62	0
63	0
64	1
65	0
66	0
67	0
71	0
72	1
73	13
74	3
75	13
76	0
77	1
78	0
79	2
80	0
84	0
85	5
86	1
87	5
88	0
89	0
91	25
92	2
93	0
97	0
98	0
99	1
101	0
102	0
103	1
104	0
105	3
106	9
107	8
108	1
109	1
110	0
111	1
113	0
115	8
116	2
117	13
118	1
119	999
120	51
121	78
122	4
123	3
124	0
125	0
127	2
128	8
129	16
130	4
131	1
132	4
133	5
134	1
135	1
136	0
137	0
139	0
141	3
142	3
143	2
144	0
145	2
147	0
151	0
152	0
153	2
154	0
155	1
156	0
159	0
160	3
161	7
162	1
163	1
164	0
165	3
166	0
167	2
168	0
169	0
171	3
172	0
173	2
174	0
175	7
176	0
177	1
178	2
179	4
180	4
181	1
182	0
183	0
184	0
185	1
186	0
187	0
189	0
190	0
191	1
192	0
193	0
197	0
199	0
201	0
202	0
203	0
204	1
205	2
206	1
207	0
215	1
216	1
217	1
218	0
219	0
228	0
229	1
230	0
231	2
232	3
233	1
234	1
235	3
236	30
237	5
238	3
239	0
243	0
245	0
247	0
249	8
250	1
251	0
255	0
256	0
257	0
258	0
263	1
264	1
265	0
273	1
274	0
275	0
289	0
290	0
291	0
292	0
307	0
338	1
339	0
340	6
341	1
342	0
365	1
366	0
367	0
381	5
382	1
383	1
472	8
473	2
474	1
475	0
