Mass Spectrum: 3-Heptadecen-5-yne, (Z)-
Formula: C17H30
CAS: 74744-55-1
Molecular weight: 234
m/z	intensity
21	0
23	0
25	3
26	10
27	154
28	33
29	354
30	8
31	1
32	2
33	2
34	0
35	2
36	2
37	5
38	6
39	161
40	26
41	597
42	59
43	519
44	18
45	1
46	2
47	2
48	2
49	2
50	12
51	61
52	45
53	96
54	78
55	530
56	53
57	158
58	11
59	2
60	1
61	2
62	6
63	24
64	13
65	125
66	62
67	477
68	90
69	175
70	24
71	46
72	5
74	4
75	19
76	8
77	300
78	149
79	999
80	276
81	332
82	149
83	93
84	12
85	19
86	2
87	3
89	15
90	10
91	336
92	96
93	653
94	246
95	514
96	88
97	36
98	4
99	1
101	1
102	3
103	14
104	22
105	102
106	43
107	329
108	86
109	65
110	18
111	6
112	1
115	10
116	4
117	23
118	9
119	36
120	14
121	230
122	73
123	26
124	9
125	1
126	0
127	1
128	3
129	5
130	1
131	9
132	2
133	16
134	5
135	306
136	121
137	15
138	3
141	1
142	1
143	2
145	1
147	4
148	0
149	69
150	12
151	3
152	3
153	0
154	1
155	0
156	1
161	1
163	17
164	3
165	1
166	4
167	1
177	8
178	4
179	0
191	8
192	1
193	0
203	0
205	16
206	2
230	1
232	6
233	1
234	26
235	5
