Mass Spectrum: 3-Undecen-1-yne, (Z)-
Formula: C11H18
CAS: 74744-32-4
Molecular weight: 150
m/z	intensity
27	469
28	94
29	523
30	12
31	11
32	1
35	0
36	1
37	10
38	35
39	567
40	83
41	756
42	192
43	934
44	32
45	1
47	4
49	8
50	56
51	120
52	132
53	140
54	108
55	496
56	329
57	163
58	5
59	17
60	0
61	4
62	17
63	58
64	18
65	278
66	304
67	325
68	132
69	192
70	119
71	12
72	1
74	6
75	6
76	6
77	294
78	141
79	999
80	412
81	223
82	73
83	42
84	14
85	8
86	2
87	1
89	5
90	2
91	197
92	35
93	547
94	207
95	120
96	66
97	9
98	6
102	2
103	4
104	1
105	31
106	6
107	215
108	100
109	64
110	8
111	1
112	2
115	3
116	1
117	1
119	5
120	2
121	207
122	32
123	2
124	0
129	1
133	0
135	59
136	6
137	0
148	1
149	3
150	17
