Mass Spectrum: Tricyclo[5.2.0.0(2,5)]nonane-3,4,8,9-tetracarboxylic acid, 6-oxo-, tetramethyl ester
Formula: C17H20O9
CAS: 74742-36-2
Molecular weight: 368
m/z	intensity
26	33
27	11
28	148
29	20
30	11
31	10
32	5
34	0
36	0
37	0
39	18
40	3
41	23
42	4
43	10
44	18
45	14
46	1
47	2
48	0
49	1
50	5
51	12
52	29
53	30
54	12
55	30
56	3
57	7
58	1
59	312
60	5
61	2
62	0
63	2
64	1
65	17
66	7
67	6
68	11
69	9
70	2
71	5
72	0
74	4
75	14
76	2
77	67
78	47
79	33
80	46
81	17
82	10
83	11
84	2
85	103
86	4
87	1
88	3
89	3
91	49
92	11
93	33
94	11
95	22
96	6
97	2
98	14
99	6
100	1
101	7
102	11
103	54
104	12
105	105
106	22
107	11
108	16
109	23
110	6
111	87
112	6
113	999
114	67
115	27
116	5
117	19
118	8
119	13
120	20
121	68
122	10
123	10
124	16
125	7
126	4
127	4
128	4
129	18
130	13
131	57
132	15
133	112
134	30
135	20
136	72
137	87
138	14
139	21
140	3
141	3
142	1
143	2
144	3
145	796
146	63
147	18
148	23
149	36
150	5
151	17
152	2
153	12
154	1
155	3
156	3
157	22
158	17
159	19
160	111
161	79
162	16
163	28
164	163
165	273
166	30
167	21
168	5
169	8
170	3
171	3
172	2
173	18
174	6
175	7
176	4
177	20
178	2
179	11
180	5
181	11
182	3
183	2
184	1
185	13
186	10
187	4
188	12
189	149
190	28
191	20
192	292
193	52
194	8
195	26
196	12
197	2
198	1
199	0
200	2
201	11
202	2
203	4
204	3
205	15
206	5
207	4
208	1
209	10
210	1
211	1
212	1
213	7
214	2
215	2
216	24
217	104
218	20
219	6
220	14
221	27
222	4
223	7
224	415
225	49
226	7
227	2
228	2
229	2
230	0
231	1
232	3
233	8
234	3
235	3
236	1
237	1
239	1
240	1
241	0
243	1
244	33
245	37
246	6
247	4
248	39
249	108
250	16
251	5
252	1
253	0
259	0
260	0
261	2
262	1
263	0
265	2
267	4
268	0
270	0
272	5
273	1
275	3
276	70
277	177
278	29
279	5
280	2
281	1
282	0
283	1
284	1
289	1
290	0
291	0
292	0
293	0
295	0
302	0
304	39
305	10
306	2
307	1
308	39
309	23
310	4
311	0
321	0
335	0
336	49
337	213
338	38
339	6
340	1
368	3
369	0
