Mass Spectrum: 3-Tridecen-1-yne, (E)-
Formula: C13H22
CAS: 74744-41-5
Molecular weight: 178
m/z	intensity
26	127
27	411
28	87
29	571
30	11
31	0
32	1
36	1
37	8
38	26
39	503
40	71
41	834
42	203
43	999
44	41
45	1
48	1
49	5
50	41
51	94
52	108
53	128
54	159
55	586
56	281
57	373
58	21
59	1
60	0
61	1
62	11
63	50
64	16
65	356
66	259
67	448
68	166
69	259
70	115
71	97
72	7
73	2
74	5
75	5
76	6
77	222
78	144
79	891
80	425
81	356
82	166
83	103
84	41
85	18
86	1
87	0
89	5
90	3
91	164
92	42
93	603
94	277
95	228
96	79
97	40
98	12
99	2
102	1
103	5
104	2
105	34
106	9
107	288
108	103
109	57
110	34
111	4
112	3
115	1
116	1
117	2
118	0
119	6
120	2
121	228
122	47
123	13
124	22
125	2
126	1
127	0
128	1
132	0
133	1
134	1
135	120
136	26
137	12
138	2
139	0
142	1
147	0
149	55
150	13
151	1
163	17
164	1
165	0
176	1
178	15
179	2
180	0
