Mass Spectrum: Hexitol, 1,3,4,6-tetraacetate 2,5-dibenzoate
Formula: C28H30O12
CAS: 74741-51-8
Molecular weight: 558
m/z	intensity
26	1
27	2
28	28
29	1
32	1
39	2
41	1
42	3
43	555
44	12
45	4
50	3
51	15
52	1
53	0
55	4
56	0
57	2
60	4
61	2
65	0
68	8
69	10
70	2
71	2
73	9
74	1
75	0
76	4
77	91
78	7
79	2
80	0
81	3
82	1
83	0
84	1
85	17
86	10
87	1
91	1
92	0
93	0
94	0
95	0
97	18
98	8
99	2
100	1
101	0
102	5
103	11
104	4
105	999
106	68
107	4
109	1
110	31
111	5
112	2
113	0
114	0
115	47
116	3
117	0
121	1
122	7
123	8
124	0
126	0
127	26
128	32
129	2
135	1
139	45
140	5
141	1
142	0
143	0
144	1
145	6
146	0
147	0
148	0
149	0
152	46
153	10
154	1
157	30
158	2
160	0
163	0
165	11
166	1
169	2
170	33
171	3
177	31
178	11
179	1
181	0
182	0
187	55
188	4
189	4
190	1
194	2
199	3
201	6
202	3
203	0
207	53
208	6
209	0
211	2
212	14
213	2
214	8
215	4
216	0
217	1
219	8
220	13
221	1
225	0
229	1
230	0
231	1
232	9
233	1
237	0
244	1
249	15
250	1
254	0
259	10
260	1
261	2
262	1
269	1
272	0
273	1
274	17
275	3
279	54
280	8
281	1
291	2
292	3
293	0
304	2
316	4
317	0
321	21
322	3
323	0
334	12
335	2
336	3
337	0
351	33
352	6
353	1
376	2
396	5
397	1
423	7
424	1
437	1
438	2
439	0
499	0
