Mass Spectrum: 3-Octen-5-yne, (E)-
Formula: C8H12
CAS: 74744-35-7
Molecular weight: 108
m/z	intensity
27	221
28	44
29	69
30	2
31	0
32	2
36	1
37	16
38	44
39	366
40	91
41	219
42	22
43	10
44	22
46	1
48	2
49	9
50	88
51	199
52	86
53	136
54	45
55	48
56	4
57	1
58	2
59	0
60	1
61	11
62	37
63	101
64	29
65	246
66	169
67	79
68	13
69	1
73	7
74	28
75	20
76	10
77	999
78	164
79	424
80	63
81	14
82	1
85	3
86	5
87	3
88	1
89	19
90	6
91	633
92	70
93	467
94	35
95	1
97	0
98	2
101	0
102	1
103	8
104	2
105	27
106	3
107	29
108	832
109	64
110	2
