Mass Spectrum: Cyclohexane, 1,5-diethenyl-3-methyl-2-methylene-, (1.alpha.,3.alpha.,5.alpha.)-
Formula: C12H18
CAS: 74742-35-1
Molecular weight: 162
m/z	intensity
25	1
26	9
27	245
28	26
29	126
30	2
32	2
33	1
34	1
35	2
36	0
37	7
38	12
39	367
40	74
41	501
42	28
43	51
44	5
45	1
46	2
47	2
48	2
49	3
50	25
51	99
52	54
53	226
54	69
55	216
56	14
57	8
58	10
59	3
60	0
61	2
62	8
63	34
64	29
65	168
66	162
67	344
68	56
69	39
70	8
71	11
72	3
73	3
74	5
75	26
76	11
77	421
78	144
79	999
80	280
81	225
82	83
83	9
84	3
85	8
86	2
87	3
88	4
89	23
90	14
91	634
92	210
93	904
94	206
95	134
96	17
97	2
99	1
100	0
101	4
102	7
103	29
104	18
105	421
106	256
107	239
108	237
109	21
110	2
111	2
113	3
114	1
115	45
116	18
117	46
118	15
119	293
120	160
121	108
122	8
124	0
125	1
126	1
127	11
128	43
129	20
130	6
131	21
132	7
133	252
134	70
135	5
147	136
148	16
149	1
159	6
160	4
161	4
162	21
163	3
