Mass Spectrum: 3,4-Dihydroxy-5-methyl-dihydrofuran-2-one, 2TMS derivative
Formula: C11H24O4Si2
CAS: 74742-33-9
Molecular weight: 276
m/z	intensity
24	0
26	5
27	17
28	51
29	31
30	5
31	16
33	1
34	0
38	3
39	14
40	3
41	32
42	6
43	93
44	87
45	280
46	21
47	88
48	5
49	7
50	1
51	3
52	8
53	11
54	4
55	20
56	3
57	16
58	13
59	97
60	13
61	36
62	3
63	2
65	2
66	41
67	7
68	3
69	44
70	6
71	8
72	21
73	999
74	85
75	354
76	22
77	32
78	2
79	2
80	2
81	4
82	0
83	3
84	1
85	23
86	4
87	12
88	2
89	3
90	1
91	1
92	1
93	4
94	3
95	2
96	1
97	98
98	7
99	13
100	2
101	29
102	59
103	17
104	4
105	3
106	1
107	0
108	0
109	1
110	0
111	3
112	1
113	6
114	2
115	100
116	18
117	96
118	11
119	7
120	1
121	0
122	0
123	1
124	0
125	0
127	23
128	4
129	21
130	179
131	46
132	11
133	33
134	4
135	3
136	0
137	0
141	1
142	2
143	56
144	6
145	3
146	42
147	323
148	48
149	27
150	2
151	0
157	0
159	0
169	0
170	0
171	10
172	1
173	1
174	0
175	1
176	0
177	0
189	10
190	2
191	3
192	1
202	0
203	0
204	4
205	6
206	1
207	0
208	0
217	9
218	3
219	16
220	3
221	1
231	1
232	1
233	4
234	0
235	0
245	0
247	0
260	0
261	22
262	5
263	1
276	13
277	2
278	1
