Mass Spectrum: 3-Nonen-5-yne, 4-ethyl-, (Z)-
Formula: C11H18
CAS: 74744-26-6
Molecular weight: 150
m/z	intensity
26	37
27	109
28	32
29	207
30	5
31	1
32	4
38	1
39	123
40	17
41	312
42	20
43	195
44	7
47	1
49	2
50	5
51	58
52	34
53	126
54	12
55	322
56	18
57	21
58	2
59	2
60	1
63	24
64	18
65	150
66	40
67	166
68	14
69	46
70	5
71	6
72	2
73	0
74	1
75	8
76	5
77	529
78	107
79	944
80	83
81	101
82	13
83	4
89	13
90	6
91	607
92	76
93	999
94	101
95	31
96	3
97	1
98	2
99	2
100	2
102	2
103	40
104	16
105	226
106	67
107	301
108	36
109	17
110	0
115	10
116	4
117	19
118	4
119	43
120	14
121	658
122	123
123	18
124	1
125	2
128	1
129	1
133	4
134	2
135	124
136	16
137	11
138	1
148	1
149	3
150	786
151	88
152	9
