Mass Spectrum: Borinic acid, diethyl-, 1,1-dimethyl-3-(trimethylsilyl)-2-propynyl ester
Formula: C12H25BOSi
CAS: 74744-61-9
Molecular weight: 224
m/z	intensity
26	18
27	39
28	2
29	78
30	2
31	7
32	0
36	0
37	3
38	4
39	23
40	20
41	75
42	6
43	98
44	18
45	41
46	2
47	4
49	1
50	2
51	5
52	3
53	23
54	5
55	29
56	23
57	91
58	15
59	55
60	5
61	6
62	2
63	9
64	2
65	6
66	19
67	34
68	12
69	50
70	5
71	12
72	3
73	168
74	13
75	33
76	3
77	7
79	8
80	1
81	12
82	5
83	63
84	8
85	20
86	2
87	15
88	1
89	1
90	2
91	5
92	1
93	16
94	5
95	15
96	16
97	999
98	101
99	143
100	12
101	21
102	2
103	0
105	1
106	1
107	7
108	3
109	42
110	8
111	22
112	3
113	4
114	1
115	2
116	0
117	1
119	1
121	2
122	2
123	74
124	38
125	42
126	4
127	1
128	2
129	7
130	1
131	1
132	0
133	0
134	0
135	0
136	0
137	5
138	10
139	704
140	96
141	78
142	10
143	2
147	1
148	0
149	1
150	2
151	3
152	3
153	20
154	1
155	1
156	0
157	1
158	0
165	1
166	3
167	5
168	4
169	1
170	0
171	0
179	0
180	1
181	5
182	0
189	0
190	0
194	2
195	7
196	2
197	1
198	0
199	0
200	0
201	0
202	0
203	0
207	0
208	3
209	14
210	2
211	0
212	0
224	1
225	0
