Mass Spectrum: Cyclopropane, 1,1,2,3-tetramethyl-
Formula: C7H14
CAS: 74752-93-5
Molecular weight: 98
m/z	intensity
25	1
26	25
27	199
28	19
29	122
30	2
31	0
36	0
37	7
38	18
39	241
40	33
41	509
42	48
43	142
44	2
45	0
49	2
50	17
51	29
52	10
53	65
54	15
55	999
56	88
57	11
61	1
62	3
63	6
64	1
65	16
66	5
67	52
68	8
69	69
70	36
71	1
74	0
75	0
77	6
78	1
79	8
80	0
81	14
82	6
83	518
84	34
85	0
96	0
97	1
98	249
99	19
100	0
