Mass Spectrum: Borane, diethyl(1-ethyl-1,2-butadienyl)-
Formula: C10H19B
CAS: 74752-99-1
Molecular weight: 150
m/z	intensity
27	128
28	25
30	8
32	5
37	1
38	16
39	31
40	257
41	999
42	36
43	9
45	4
49	2
51	114
52	42
53	150
54	71
55	96
56	30
57	20
58	7
59	6
61	1
62	7
63	36
64	38
65	73
66	41
67	103
68	103
69	310
70	14
71	8
72	5
73	20
76	3
77	65
78	174
79	863
80	59
81	72
83	0
85	3
87	10
89	11
90	7
91	32
92	76
93	128
94	25
95	25
96	5
100	2
101	4
103	7
105	15
106	18
107	19
108	36
110	3
111	5
112	2
117	2
118	8
120	38
121	329
122	593
123	30
124	12
125	4
127	3
130	1
131	2
133	2
135	21
136	7
137	3
138	4
139	1
142	5
143	2
144	2
149	4
150	33
