Mass Spectrum: Cyclopropane, 1-chloro-2-(1-propenyl)-
Formula: C6H9Cl
CAS: 74752-94-6
Molecular weight: 116
m/z	intensity
27	162
28	34
29	34
32	1
35	1
36	6
37	1
38	10
39	229
40	29
41	257
42	13
43	2
44	2
45	1
48	1
49	9
50	14
51	67
52	46
53	291
54	34
55	51
56	2
57	1
61	4
62	10
63	10
64	4
65	177
66	47
67	36
68	2
69	0
73	7
74	1
75	31
76	6
77	104
78	19
79	294
80	57
81	999
82	62
83	2
87	3
88	16
89	5
90	7
91	1
95	1
99	1
100	1
101	28
102	1
103	9
115	1
116	124
117	8
118	37
119	2
