Mass Spectrum: 3,4-Dimethyldihydrofuran-2,5-dione
Formula: C6H8O3
CAS: 7475-92-5
Molecular weight: 128
m/z	intensity
25	4
26	47
27	133
28	120
29	52
30	1
31	3
36	2
37	8
38	19
39	127
40	34
41	723
42	15
43	9
44	10
45	4
49	3
50	16
51	16
52	6
53	19
54	12
55	89
56	999
57	43
128	2
