Mass Spectrum: Cyclopentanecarboxylic acid, 2-methyl-3-methylene-, methyl ester
Formula: C9H14O2
CAS: 74764-25-3
Molecular weight: 154
m/z	intensity
27	26
28	163
29	23
30	0
31	2
33	3
34	0
38	0
39	34
40	11
41	66
42	5
43	25
44	6
45	5
50	1
51	5
52	5
53	41
54	11
55	82
56	4
57	2
58	0
59	25
60	0
61	4
63	0
64	0
65	13
66	8
67	131
68	17
69	19
70	1
71	2
72	0
73	0
74	3
75	0
76	0
77	58
78	10
79	237
80	34
81	18
82	4
83	5
84	0
85	2
86	0
87	6
88	0
89	0
91	31
92	5
93	65
94	196
95	999
96	78
97	8
98	1
99	1
100	1
101	7
102	0
103	0
104	0
105	4
106	2
107	30
108	4
109	3
110	0
111	14
112	2
113	1
114	0
115	0
117	0
119	2
120	1
121	5
122	9
123	70
124	7
125	11
126	5
127	3
128	0
133	1
134	1
135	0
136	0
137	2
138	0
139	32
140	2
141	0
147	1
148	0
149	0
153	1
154	28
155	3
156	0
