Mass Spectrum: 2H-Thiocin-2-one, 3,8-dihydro-
Formula: C7H8OS
CAS: 74764-26-4
Molecular weight: 140
m/z	intensity
23	0
24	0
25	1
26	6
27	22
28	27
29	2
31	0
32	0
33	1
34	1
35	2
36	1
37	17
38	22
39	239
40	32
41	999
42	54
43	2
44	1
45	96
46	13
47	21
48	1
49	1
50	1
51	1
52	0
53	2
54	53
55	5
56	0
57	2
58	11
59	3
60	3
61	3
62	0
63	0
65	1
66	1
67	85
68	56
69	198
70	10
71	15
72	11
73	16
74	4
75	0
76	0
77	0
79	1
80	3
81	8
82	2
83	0
84	3
85	67
86	6
87	3
90	0
93	0
94	2
95	23
96	4
97	0
98	1
99	6
100	18
101	67
102	5
103	3
105	0
109	4
113	1
114	17
115	1
116	0
124	0
127	1
142	0
