Mass Spectrum: Propanedinitrile, cyclohexyl(2-methylcyclohexyl)-
Formula: C16H24N2
CAS: 74764-55-9
Molecular weight: 244
m/z	intensity
21	0
23	0
25	0
26	2
27	64
28	31
29	100
30	3
31	2
33	0
34	0
35	0
36	0
37	3
38	2
39	77
40	13
41	281
42	49
43	46
44	3
45	0
46	0
47	1
48	0
49	1
50	2
51	10
52	9
53	39
54	29
55	999
56	50
57	6
58	1
59	1
61	0
62	0
63	2
64	3
65	13
66	10
67	48
68	12
69	49
70	9
71	0
73	2
75	1
76	1
77	19
78	11
79	20
80	10
81	33
82	6
83	523
84	30
85	0
89	0
90	2
91	10
92	8
93	8
94	7
95	12
96	4
97	637
98	46
99	2
102	0
103	2
104	3
105	8
106	6
107	3
108	4
109	1
110	1
114	0
115	0
116	1
117	2
118	3
119	8
120	5
121	1
122	2
123	0
128	0
129	0
130	1
131	1
132	1
133	4
134	1
135	1
136	1
143	0
144	0
145	1
146	1
147	3
148	1
149	2
150	0
159	0
160	1
161	2
162	12
163	5
175	0
176	0
188	0
189	0
201	0
202	0
216	0
217	0
244	0
