Mass Spectrum: Propanedinitrile, (2-methylcyclohexyl)-
Formula: C10H14N2
CAS: 74764-54-8
Molecular weight: 162
m/z	intensity
24	1
26	22
27	263
28	96
29	197
30	6
32	0
34	1
35	1
37	9
38	14
39	243
40	41
41	352
42	287
43	83
44	7
45	3
47	1
49	3
50	14
51	32
52	31
53	73
54	47
55	999
56	75
57	18
62	1
63	9
64	9
65	31
66	33
67	86
68	22
69	81
70	126
71	4
74	1
75	1
76	5
77	18
78	12
79	37
80	24
81	102
82	13
83	3
85	0
87	0
88	0
89	3
90	1
91	10
92	11
93	19
94	29
95	17
96	11
97	335
98	24
99	0
100	1
102	1
103	3
104	2
105	5
106	6
107	4
108	14
109	0
115	0
116	1
117	1
118	7
119	4
120	5
121	3
122	4
128	1
129	2
130	0
131	2
132	1
133	3
134	8
135	1
140	0
145	0
147	4
161	2
