Mass Spectrum: Propanedinitrile, dicyclohexyl-
Formula: C15H22N2
CAS: 74764-28-6
Molecular weight: 230
m/z	intensity
26	11
27	52
28	18
29	57
30	1
37	0
38	2
39	60
40	10
41	207
42	16
43	21
44	2
49	0
50	1
51	9
52	7
53	27
54	23
55	447
56	24
57	4
59	0
63	2
64	4
65	13
66	7
67	38
68	6
69	2
70	0
71	1
74	1
75	1
76	2
77	14
78	8
79	20
80	13
81	23
82	6
83	999
84	64
85	3
89	2
90	1
91	9
92	7
93	5
94	3
95	7
96	0
97	0
99	0
102	0
103	1
104	3
105	11
106	6
107	2
108	2
109	0
110	0
111	0
114	0
115	0
116	1
117	1
118	3
119	5
120	5
121	4
122	4
123	1
130	1
131	1
132	2
133	1
136	1
141	0
145	1
146	2
147	4
148	23
149	19
150	2
152	0
160	1
161	0
162	1
174	1
175	0
176	0
187	0
202	1
203	2
230	4
