Mass Spectrum: 3-Heptene, 3-ethyl-
Formula: C9H18
CAS: 74764-46-8
Molecular weight: 126
m/z	intensity
22	1
25	2
26	4
27	47
29	43
30	2
32	25
34	1
36	2
37	1
38	3
39	51
40	3
41	157
42	20
43	67
44	0
48	1
49	2
51	13
52	5
53	42
54	12
55	999
56	79
57	13
58	4
59	2
62	1
63	4
65	12
66	5
67	40
68	7
69	139
70	28
71	28
72	3
76	1
77	7
79	5
81	23
82	4
83	12
84	55
85	6
91	4
93	1
94	2
95	8
96	10
97	299
98	30
99	4
109	1
124	2
126	109
127	15
