Mass Spectrum: Iron, tricarbonyl[N-(phenyl-2-pyridinylmethylene)benzenamine-N,N']-
Formula: C21H14FeN2O3
CAS: 74764-11-7
Molecular weight: 398
m/z	intensity
27	9
28	999
29	11
30	2
32	9
33	0
39	4
40	9
41	3
42	1
43	4
44	3
49	0
50	3
51	51
52	6
53	0
54	12
55	1
56	200
57	6
58	0
63	1
64	0
65	2
66	3
67	0
70	0
71	1
74	0
75	1
76	5
77	304
78	41
79	4
80	0
81	2
82	2
89	0
91	2
92	2
93	7
100	0
101	0
102	1
103	4
104	4
105	3
106	2
107	4
108	5
109	0
113	0
114	1
115	2
116	1
119	0
121	0
126	1
127	6
128	17
129	10
130	3
131	3
132	39
133	53
134	59
135	7
136	0
139	5
140	5
142	3
143	2
144	1
145	0
146	0
151	3
152	10
153	10
154	42
155	134
156	20
157	66
158	5
159	13
160	2
161	0
163	0
164	0
165	1
166	4
167	9
168	10
169	1
170	2
171	10
172	0
175	0
176	0
177	1
178	3
179	5
180	294
181	69
182	11
183	3
234	3
235	3
236	2
237	4
238	0
241	0
242	0
243	0
244	0
253	1
255	12
256	9
257	64
258	176
259	34
260	7
261	1
284	1
285	1
287	1
289	3
290	1
304	0
308	0
309	0
312	45
313	20
314	628
315	142
316	19
317	2
320	0
334	0
335	0
339	1
340	21
341	7
342	332
343	76
344	12
345	1
367	0
368	4
369	1
370	56
371	13
372	2
396	1
398	24
399	7
400	0
