Mass Spectrum: Cyclopentanecarboxylic acid, 2-methyl-4-methylene-, methyl ester
Formula: C9H14O2
CAS: 74764-24-2
Molecular weight: 154
m/z	intensity
26	49
27	95
29	82
30	7
31	10
33	6
37	1
38	4
39	131
40	36
41	195
42	14
43	52
44	13
45	14
46	0
48	0
49	2
50	6
51	17
52	20
53	123
54	31
55	203
56	15
57	8
58	5
59	87
60	3
61	12
62	0
63	3
64	2
65	36
66	20
67	209
68	34
69	71
70	4
71	9
72	3
73	4
74	4
75	3
76	1
77	135
78	35
79	522
80	83
81	56
82	15
83	11
84	4
85	12
86	1
87	58
88	4
89	2
90	1
91	78
92	16
93	169
94	621
95	999
96	76
97	26
98	4
99	6
100	8
101	2
102	0
103	1
104	1
105	16
106	10
107	88
108	16
109	11
110	2
111	36
112	15
113	4
114	6
115	1
116	0
117	3
118	1
119	8
120	4
121	13
122	34
123	127
124	12
125	68
126	6
127	1
128	0
129	0
132	1
135	2
136	1
137	6
138	1
139	171
140	13
141	1
142	0
151	1
152	5
153	4
154	36
155	3
156	0
