Mass Spectrum: Benzene, 1-(1,3-dimethyl-2-butenyl)-4-(trifluoromethyl)-
Formula: C13H15F3
CAS: 74764-29-7
Molecular weight: 228
m/z	intensity
22	0
25	1
26	0
27	28
28	0
29	18
35	0
37	2
38	1
39	32
40	5
41	401
42	14
43	12
44	0
50	3
51	7
52	3
53	21
54	1
55	7
56	3
57	3
59	0
62	2
63	6
64	3
65	7
66	2
67	18
68	28
69	999
70	55
71	1
73	0
75	4
76	1
77	4
78	1
79	2
80	0
81	2
82	1
83	3
84	0
87	1
88	1
89	4
90	2
91	4
92	0
95	2
96	1
99	2
101	1
102	1
103	3
104	0
107	2
108	0
109	21
110	2
113	1
114	3
115	6
116	1
117	1
119	8
120	2
121	0
125	1
126	0
127	3
128	3
129	2
130	0
132	0
133	3
134	0
137	1
138	1
139	3
140	6
141	2
142	2
143	1
145	1
146	1
151	3
152	0
153	1
155	0
157	1
158	1
159	28
160	4
164	1
165	2
170	0
171	1
172	9
173	1
177	1
182	1
183	1
185	4
191	0
193	0
195	0
196	1
197	1
209	4
210	0
211	1
213	1
226	0
228	30
229	3
