Mass Spectrum: Acetic acid, chloro-, 2-phenylethyl ester
Formula: C10H11ClO2
CAS: 7476-91-7
Molecular weight: 198
m/z	intensity
26	3
27	4
29	2
35	1
36	8
38	2
39	14
40	2
41	4
42	6
43	2
44	4
48	1
49	22
50	10
51	25
52	10
53	3
55	1
57	1
62	3
63	13
64	4
65	40
66	3
70	2
71	1
74	3
75	3
76	4
77	66
78	35
79	32
80	6
81	2
82	5
89	12
90	6
91	243
92	24
93	2
97	1
102	6
103	53
104	999
105	153
106	10
107	2
120	2
121	3
