Mass Spectrum: 1,3-Dioxolane-4,5-dimethanamine, N,N,N',N',2,2-hexamethyl-
Formula: C11H24N2O2
CAS: 74764-43-5
Molecular weight: 216
m/z	intensity
26	1
27	9
29	11
30	23
31	5
32	1
39	5
40	1
41	13
42	59
43	41
44	24
45	7
46	2
53	1
54	1
55	10
56	13
57	24
58	999
59	50
60	5
67	1
68	2
69	1
70	12
71	11
72	12
73	0
81	0
82	9
83	2
84	8
85	12
86	8
87	4
88	2
94	1
96	5
97	1
98	8
99	2
100	205
101	12
102	0
112	5
113	3
114	2
115	2
126	2
128	1
130	0
141	8
142	1
156	1
157	0
158	52
159	5
172	1
201	10
202	1
