Mass Spectrum: 1,1'-Biazetidine, 2,2,2',2'-tetrachloro-3,3,3',3'-tetramethyl-
Formula: C10H16Cl4N2
CAS: 74779-83-2
Molecular weight: 304
m/z	intensity
26	0
27	38
28	104
29	113
30	3
31	0
32	17
33	0
35	1
36	12
37	0
38	3
39	48
40	11
41	334
42	129
43	5
44	2
45	0
47	0
49	25
50	2
51	12
52	4
53	73
54	29
55	999
56	79
57	4
58	2
59	1
60	0
61	4
62	43
63	65
64	14
65	24
66	16
67	50
68	71
69	5
70	1
72	0
73	0
74	1
75	50
76	15
77	43
78	6
79	10
80	43
81	36
82	91
83	6
84	0
85	1
86	1
87	7
88	5
89	101
90	26
91	302
92	19
93	87
94	4
95	0
96	0
97	1
98	0
99	0
100	1
101	3
102	64
103	29
104	24
105	10
106	2
107	5
108	0
109	1
110	0
111	2
112	0
113	1
114	7
115	27
116	479
117	48
118	265
119	19
120	36
121	2
122	0
123	10
124	0
125	10
126	0
127	3
128	1
129	4
130	1
131	2
132	1
133	0
134	0
136	10
137	3
138	8
139	1
140	2
141	0
142	0
143	26
144	2
145	8
146	0
147	0
149	0
150	1
151	1
152	64
153	4
154	50
155	3
156	11
157	1
158	1
159	0
161	0
163	1
165	2
166	1
167	1
168	0
169	1
170	0
171	0
172	1
177	1
179	28
180	2
181	17
182	1
183	4
184	0
185	1
188	0
189	0
192	2
193	5
194	1
195	3
196	0
197	8
198	1
199	5
201	10
202	12
205	6
206	4
207	2
208	5
209	1
210	2
211	0
212	0
213	2
214	0
215	2
216	0
217	1
218	0
219	12
220	2
221	8
222	1
223	1
224	0
225	0
227	0
228	7
229	2
230	8
231	4
232	6
233	270
234	34
235	177
236	20
237	30
238	4
239	0
240	0
242	0
243	0
252	0
253	4
254	0
255	15
256	1
257	12
258	1
259	3
260	0
261	0
264	0
267	3
269	983
270	123
271	941
272	113
273	304
274	37
275	33
276	4
277	0
289	0
291	0
293	0
304	2
305	0
306	2
307	0
308	1
