Mass Spectrum: .alpha.-D-Glucofuranuronic acid, .gamma.-lactone, cyclic 1,2-(ethylboronate) 5-acetate
Formula: C10H13BO7
CAS: 74779-82-1
Molecular weight: 256
m/z	intensity
24	0
25	1
26	10
27	28
28	41
29	101
30	5
31	12
32	1
33	0
34	0
35	0
36	0
37	1
38	2
39	20
40	5
41	14
42	30
43	999
44	42
45	16
46	0
47	2
48	0
49	0
50	2
51	2
52	2
53	6
54	5
55	21
56	9
57	38
58	12
59	3
60	22
61	2
62	2
63	0
64	0
65	0
66	1
67	2
68	10
69	19
70	39
71	13
72	2
73	7
74	0
75	0
76	0
77	1
78	1
79	2
80	0
81	1
82	4
83	50
84	8
85	14
86	4
87	2
88	2
89	0
91	2
92	0
93	0
94	0
95	2
96	9
97	15
98	52
99	22
100	5
101	23
102	3
103	0
105	0
107	0
108	0
109	2
110	39
111	165
112	13
113	5
114	3
115	2
116	1
117	0
119	0
122	0
123	2
124	5
125	1
126	1
127	7
128	2
129	5
130	2
131	0
132	0
133	0
134	0
135	1
136	0
137	0
138	20
139	81
140	40
141	19
142	1
143	0
147	0
148	0
150	0
151	1
152	1
153	1
154	1
155	0
156	7
157	25
158	3
159	0
163	0
166	1
167	8
168	8
169	3
170	5
171	0
179	0
181	0
182	0
183	2
184	0
185	0
187	0
195	0
196	1
197	1
199	0
207	0
209	0
213	35
214	141
215	13
216	2
217	0
218	0
221	0
226	0
227	1
229	0
253	0
255	0
256	0
