Mass Spectrum: Cyclopropane, 1,1-dimethyl-2-(1-methyl-2-propenyl)-
Formula: C9H16
CAS: 74779-84-3
Molecular weight: 124
m/z	intensity
23	0
24	2
25	2
26	19
27	247
28	31
29	138
30	1
31	1
35	2
37	9
38	18
39	314
40	92
41	999
42	64
43	105
44	4
46	1
47	2
50	21
51	46
52	21
53	239
54	28
55	242
56	84
57	13
58	0
61	2
62	4
63	17
64	4
65	44
66	59
67	629
68	865
69	798
70	46
71	1
72	2
73	0
75	2
76	2
77	59
78	9
79	92
80	25
81	260
82	94
83	13
84	0
86	1
87	5
88	0
89	0
91	24
92	5
93	15
94	6
95	58
96	11
97	0
102	1
105	2
106	1
107	4
108	1
109	191
110	15
116	0
121	1
124	18
125	1
