Mass Spectrum: [1,2,3,4]Tetrazolo[1,5-a]pyridin-8-ol
Formula: C5H4N4O
CAS: 7477-06-7
Molecular weight: 136
m/z	intensity
36	18
37	125
38	169
39	268
40	49
41	45
42	25
43	25
44	17
45	27
49	34
50	100
51	114
52	320
53	999
54	209
55	56
56	5
57	12
58	3
60	2
61	10
62	12
63	17
64	13
65	5
66	11
67	4
69	9
70	3
71	1
77	15
78	5
79	31
80	110
81	33
82	5
89	3
95	2
101	2
108	41
109	4
136	41
137	3
