Mass Spectrum: Quinaldanilide
Formula: C16H12N2O
CAS: 7477-46-5
Molecular weight: 248
m/z	intensity
101	136
102	108
103	40
128	537
129	999
130	130
156	38
218	20
219	60
220	26
248	547
249	102
