Mass Spectrum: 1,3-Heptadiene, 2,3-dimethyl-
Formula: C9H16
CAS: 74779-65-0
Molecular weight: 124
m/z	intensity
27	71
28	23
29	65
30	1
31	2
32	3
39	90
40	26
41	329
42	23
43	208
44	7
45	9
50	0
51	13
52	9
53	100
54	18
55	284
56	21
57	13
59	1
63	1
64	1
65	39
66	16
67	628
68	69
69	95
70	12
75	1
77	73
78	15
79	103
80	16
81	251
82	37
83	50
84	4
91	63
92	9
93	48
94	42
95	49
96	15
97	1
103	0
105	8
106	1
107	33
108	11
109	999
110	89
111	3
121	1
123	9
124	490
125	50
126	1
