Mass Spectrum: Cyclopropanecarboxylic acid, 3-(3-butenyl)-2,2-dimethyl-
Formula: C10H16O2
CAS: 74779-76-3
Molecular weight: 168
m/z	intensity
22	0
23	1
24	1
25	4
26	25
27	408
28	57
29	292
30	6
31	41
33	4
34	0
35	4
36	3
37	19
38	31
39	689
40	102
41	999
42	87
43	540
44	24
45	109
46	5
47	8
48	2
49	5
50	27
51	73
52	39
53	280
54	130
55	556
56	68
57	113
58	21
59	458
60	27
61	4
62	5
63	18
64	5
65	81
66	48
67	601
68	172
69	423
70	54
71	133
72	18
73	37
74	5
75	11
76	2
77	82
78	29
79	203
80	76
81	532
82	129
83	159
84	22
85	90
86	37
87	12
88	15
89	3
90	1
91	51
92	8
93	67
94	20
95	255
96	79
97	74
98	13
99	41
100	34
101	58
102	3
103	2
104	0
105	10
106	4
107	88
108	128
109	104
110	17
111	64
112	28
113	290
114	163
115	13
116	0
117	2
119	2
120	1
121	13
122	57
123	285
124	32
125	90
126	62
127	32
128	2
132	0
133	0
135	19
136	1
137	0
138	0
139	130
140	13
141	0
149	0
150	3
151	2
153	40
154	3
167	0
168	2
169	0
