Mass Spectrum: Quinazolin-4(3H)-one, 3-amino-2-benzyl-
Formula: C15H13N3O
CAS: 74772-59-1
Molecular weight: 251
m/z	intensity
33	33
34	26
36	6
37	63
38	166
39	626
40	151
41	173
42	45
43	77
44	115
45	10
49	2
50	445
51	457
52	137
53	68
54	14
55	36
56	15
57	21
61	38
62	173
63	475
64	316
65	664
66	48
67	14
68	9
69	17
70	9
71	4
74	134
75	203
76	349
77	419
78	107
79	35
80	4
83	2
86	26
87	34
88	72
89	367
90	531
91	999
92	194
93	31
95	3
99	10
100	5
102	250
103	93
104	155
105	104
106	43
107	12
114	17
115	34
116	193
117	110
118	41
119	128
120	150
121	7
127	5
128	14
129	31
130	69
131	31
132	144
133	29
135	2
144	51
145	29
146	49
147	9
151	8
152	27
153	5
157	6
159	10
160	87
161	22
164	5
165	60
166	26
167	32
173	4
175	3
177	4
178	10
179	27
180	22
181	6
184	3
185	11
187	19
188	3
190	19
191	23
192	23
193	26
194	17
195	9
201	15
202	12
203	6
205	107
206	69
207	29
208	17
209	4
211	26
218	6
219	3
220	17
222	50
232	13
233	115
234	203
235	280
236	131
237	16
249	4
250	68
251	354
252	57
