Mass Spectrum: 12-Methyl-13-oxapentacyclo[6.2.1.1(3,6).1(10,12).0(2,7)]tridecane
Formula: C13H18O
CAS: 74772-11-5
Molecular weight: 190
m/z	intensity
26	3
27	77
28	7
29	38
30	1
31	3
37	1
38	5
39	148
40	25
41	235
42	13
43	796
44	17
45	41
46	1
50	12
51	59
52	30
53	108
54	14
55	61
56	4
57	7
58	11
59	2
60	1
62	3
63	20
64	7
65	101
66	765
67	399
68	44
69	49
70	5
71	81
72	8
73	3
74	2
75	6
76	5
77	171
78	88
79	371
80	238
81	736
82	73
83	15
84	23
85	8
86	2
87	3
88	1
89	10
90	5
91	375
92	111
93	114
94	43
95	142
96	27
97	22
98	10
99	3
100	1
101	2
102	7
103	32
104	61
105	205
106	136
107	75
108	70
109	72
110	33
111	21
112	6
113	2
114	4
115	57
116	22
117	132
118	59
119	218
120	117
121	33
122	27
123	74
124	219
125	999
126	114
127	12
128	24
129	50
130	29
131	116
132	146
133	92
134	23
135	25
136	33
137	3
138	2
139	2
140	1
141	5
142	4
143	70
144	32
145	64
146	112
147	293
148	55
149	100
150	12
151	2
154	1
155	2
156	3
157	41
158	6
159	8
160	3
161	44
162	64
163	6
164	1
165	1
171	8
172	29
173	7
174	2
175	130
176	14
177	2
189	21
190	875
191	139
192	11
193	2
