Mass Spectrum: .beta.-D-Ribofuranose, cyclic 1,5:2,3-bis(ethylboronate)
Formula: C9H16B2O5
CAS: 74779-73-0
Molecular weight: 226
m/z	intensity
24	2
25	21
26	85
27	240
28	185
29	515
30	18
31	29
35	0
36	2
37	11
38	28
39	272
40	74
41	186
42	223
43	415
44	110
45	98
47	2
48	3
49	5
50	10
51	12
52	29
53	104
54	54
55	182
56	84
57	298
58	27
59	16
60	2
62	6
66	22
67	34
68	76
69	203
70	287
71	109
72	11
73	7
74	2
75	3
77	0
79	8
80	3
81	35
82	55
83	186
84	23
85	27
86	21
90	3
91	3
93	1
94	4
95	32
96	77
97	83
98	345
99	999
100	71
101	11
105	2
108	4
109	25
110	179
111	704
112	94
113	82
114	12
122	7
123	108
124	445
125	121
126	21
127	40
128	52
129	32
130	3
134	3
135	1
137	2
138	12
139	13
140	57
141	156
142	17
143	5
147	4
150	5
151	11
152	3
153	7
155	4
156	1
161	1
165	6
166	28
167	32
168	17
169	38
170	7
171	1
180	7
182	1
195	11
196	33
197	53
199	5
205	1
225	5
