Mass Spectrum: 2-Azetidinone, 3,3-dimethyl-, dimer
Formula: C10H18N2O2
CAS: 74779-62-7
Molecular weight: 198
m/z	intensity
26	3
27	43
28	65
29	76
30	31
31	0
32	0
37	0
38	1
39	67
40	31
41	383
42	168
43	26
44	2
50	0
51	0
52	1
53	11
54	10
55	153
56	999
57	78
58	4
67	0
68	3
69	26
70	371
71	38
72	5
73	0
81	1
82	2
83	23
84	31
85	3
96	1
97	15
98	19
99	13
100	0
110	0
111	2
112	7
113	20
114	2
125	2
126	6
127	46
128	4
140	5
141	1
145	0
153	1
167	0
168	42
169	5
196	115
197	13
198	1
