Mass Spectrum: .alpha.-D-Glucofuranuronic acid, .gamma.-lactone, cyclic 1,2-(ethylboronate) 5-(diethylborinate)
Formula: C12H20B2O6
CAS: 74779-81-0
Molecular weight: 282
m/z	intensity
27	29
28	49
29	105
30	3
31	6
36	1
39	22
40	24
41	114
42	18
43	91
44	6
45	5
50	1
51	4
52	6
53	10
54	5
55	59
56	53
57	192
58	8
59	7
60	2
66	3
67	10
68	21
69	62
70	46
71	34
72	2
73	1
77	5
78	1
79	8
80	2
81	10
82	22
83	123
84	16
85	28
86	2
88	1
91	2
94	2
95	11
96	14
97	50
98	256
99	999
100	44
101	7
105	1
108	1
109	8
110	71
111	269
112	27
113	30
114	3
115	1
122	5
123	22
124	14
125	42
126	224
127	854
128	55
129	7
136	1
137	3
138	86
139	376
140	53
141	78
142	5
149	3
150	13
151	34
152	8
153	12
154	3
155	12
156	2
157	4
167	4
168	16
169	57
170	6
172	1
177	2
178	16
179	41
180	3
181	2
183	1
194	5
195	8
196	19
197	40
198	3
200	3
201	3
205	1
206	5
207	14
208	3
209	3
214	2
221	1
222	1
223	6
224	34
225	67
226	10
227	1
234	1
235	3
251	6
252	45
253	93
254	12
255	2
