Mass Spectrum: 1,4-Naphthalenediol, monobenzoate
Formula: C17H12O3
CAS: 7477-60-3
Molecular weight: 264
m/z	intensity
26	1
27	5
29	1
30	0
37	0
38	1
39	7
40	0
41	3
42	1
43	3
44	0
45	1
46	0
49	0
50	24
51	71
52	6
53	4
54	2
55	3
56	1
57	4
60	0
61	0
62	2
63	7
64	1
65	1
66	0
67	0
68	0
69	2
70	1
71	2
72	0
73	2
74	9
75	13
76	33
77	324
78	30
79	1
80	0
81	1
82	1
83	2
84	1
85	1
86	1
87	2
88	1
89	2
90	0
91	2
92	0
93	0
94	0
95	1
96	0
97	1
98	0
99	0
100	0
101	5
102	26
103	48
104	20
105	999
106	103
107	6
108	0
109	1
110	0
111	1
112	0
113	2
114	1
115	4
116	0
117	0
121	0
122	0
123	0
124	0
125	0
126	0
127	0
128	0
129	1
130	4
131	30
132	3
133	0
139	0
140	0
141	0
142	0
143	0
151	1
152	1
153	0
158	1
159	36
160	6
161	0
163	0
164	0
165	0
166	0
167	0
174	0
175	0
176	0
177	1
178	2
179	0
180	0
181	0
182	0
189	1
190	0
191	0
192	0
205	1
206	0
207	1
208	0
217	0
218	0
219	0
234	0
235	0
236	0
262	1
263	2
264	230
265	50
266	6
267	0
