Mass Spectrum: 3-Oxabicyclo[6.3.1]dodec-8-en-2-one
Formula: C11H16O2
CAS: 74785-44-7
Molecular weight: 180
m/z	intensity
26	23
27	188
28	32
29	89
30	5
31	24
37	2
39	222
40	47
41	219
42	30
43	46
44	2
45	6
46	7
47	6
50	21
51	65
52	48
53	99
54	34
55	186
56	31
57	110
58	9
59	6
60	6
61	2
62	6
63	20
64	9
65	71
66	38
67	100
68	27
69	31
70	10
71	12
73	5
74	5
75	2
77	221
78	89
79	430
80	69
81	56
82	20
83	25
84	5
85	4
86	5
87	3
88	2
89	5
91	284
92	218
93	999
94	135
95	56
96	13
97	20
98	18
99	25
100	2
101	2
103	7
104	12
105	80
106	43
107	65
108	31
109	12
110	15
111	19
112	4
115	4
117	3
119	54
120	12
121	13
122	13
123	43
124	11
125	15
129	2
131	6
132	7
133	24
134	138
135	87
136	10
137	20
138	170
139	16
144	2
147	1
149	3
150	11
151	10
152	3
162	6
163	4
165	5
178	2
180	100
181	14
