Mass Spectrum: 2-Propenoic acid, 5-methylene-6-heptenyl ester
Formula: C11H16O2
CAS: 74785-39-0
Molecular weight: 180
m/z	intensity
26	52
27	415
29	63
30	4
31	25
37	2
38	15
39	188
40	51
41	296
42	26
43	27
44	6
45	6
49	1
50	18
51	49
52	40
53	125
54	73
55	999
56	45
57	16
62	3
63	11
64	4
65	72
66	42
67	214
68	224
69	29
70	9
71	6
73	13
77	128
78	48
79	539
80	300
81	124
82	13
83	14
84	3
85	4
86	2
91	125
93	678
94	60
95	17
96	8
97	13
98	5
99	1
103	2
105	19
106	11
107	76
108	247
109	33
110	7
111	6
112	1
113	5
119	7
120	2
121	7
122	2
123	8
124	3
125	4
133	3
134	5
135	10
136	4
137	4
138	5
147	1
152	3
165	1
