Mass Spectrum: dl-Xylitol, cyclic 2,3-(phenylboronate) 1,4,5-triacetate
Formula: C17H21BO8
CAS: 74793-44-5
Molecular weight: 364
m/z	intensity
27	6
28	3
29	4
30	0
31	2
38	0
39	7
40	2
41	4
42	7
43	999
44	23
45	3
50	1
51	6
52	2
53	4
54	1
55	6
56	0
57	5
58	0
60	0
61	2
62	0
63	1
65	1
66	0
67	1
69	2
70	0
71	13
72	1
73	7
74	1
75	1
76	2
77	10
78	4
79	0
80	1
81	2
82	0
83	1
84	1
87	3
88	2
89	7
90	4
91	11
92	2
93	0
94	0
97	0
99	13
100	0
101	1
102	0
103	26
104	27
105	45
106	2
107	0
111	1
112	2
113	1
114	1
117	7
118	1
119	0
120	0
121	1
122	1
124	2
125	5
126	1
129	1
130	1
131	2
132	0
133	1
139	0
141	4
142	1
143	1
144	1
146	30
147	26
148	2
149	0
152	0
153	1
154	1
155	1
156	0
158	85
159	402
160	59
161	12
162	2
163	1
164	1
165	1
166	2
167	5
168	1
171	10
172	19
173	11
174	2
175	0
176	2
177	1
178	0
181	0
183	2
184	8
185	17
186	1
188	7
189	30
190	3
191	0
197	0
198	0
200	5
201	56
202	78
203	11
204	1
205	0
206	1
207	1
213	0
214	0
215	2
216	0
218	9
219	44
220	7
221	1
227	0
230	22
231	90
232	12
233	2
243	47
244	196
245	29
246	3
247	0
248	0
249	2
260	0
261	1
262	1
263	0
287	0
291	14
292	0
304	1
311	0
313	0
363	1
364	5
365	1
