Mass Spectrum: 1,3,2-Dioxaborinane-4-methanol, 5-(benzoyloxy)-2-ethyl-, benzoate (ester), trans-
Formula: C20H21BO6
CAS: 74793-13-8
Molecular weight: 368
m/z	intensity
26	1
27	2
28	5
29	3
39	2
41	2
42	1
43	5
44	1
45	0
50	2
51	17
52	2
53	1
54	1
55	3
56	4
57	14
67	0
68	1
69	5
70	8
71	1
75	1
76	5
77	191
78	15
79	2
82	2
83	8
84	2
91	1
95	0
96	2
97	4
98	13
99	3
103	1
104	5
105	999
106	73
107	4
109	2
110	68
111	277
112	17
113	2
122	3
123	166
124	694
125	48
126	4
135	1
140	0
141	2
149	3
152	0
153	1
167	1
174	1
175	5
181	2
203	2
204	1
215	1
216	10
217	31
218	4
232	5
233	22
234	3
246	3
339	1
