Mass Spectrum: 1,3-Dioxolane, 2-cyclohexyl-4,5-dimethyl-
Formula: C11H20O2
CAS: 74793-11-6
Molecular weight: 184
m/z	intensity
27	25
28	13
29	42
30	2
31	20
32	0
37	0
38	0
39	24
40	6
41	95
42	11
43	71
44	7
45	53
46	1
47	0
50	0
51	1
52	1
53	17
54	27
55	335
56	31
57	20
58	2
59	2
60	0
65	2
66	4
67	53
68	26
69	8
70	4
71	9
72	11
73	350
74	15
75	1
77	3
78	1
79	8
80	2
81	67
82	8
83	79
84	8
85	1
87	0
89	4
91	2
92	0
93	4
94	6
95	23
96	45
97	5
98	1
99	1
100	1
101	999
102	58
103	5
109	0
110	2
111	17
112	3
115	1
126	0
127	3
128	1
129	1
139	0
140	34
141	3
142	0
153	0
155	0
156	4
157	0
182	0
183	11
184	1
