Mass Spectrum: DL-Xylitol, cyclic 1,4:2,3-bis(ethylboronate) 5,5'-(ethylboronate)
Formula: C20H39B5O10
CAS: 74792-96-4
Molecular weight: 494
m/z	intensity
26	4
27	9
28	9
29	14
30	0
31	2
37	0
38	0
39	5
40	2
41	42
42	16
43	63
44	2
45	3
46	0
48	0
50	0
51	1
52	2
53	8
54	10
55	27
56	18
57	96
58	6
59	12
60	1
61	0
62	0
63	0
64	0
65	2
66	2
67	8
68	5
69	371
70	36
71	36
72	2
73	2
74	0
75	0
76	0
77	1
78	0
79	3
80	2
81	251
82	25
83	50
84	21
85	14
86	5
87	19
88	0
89	1
90	1
91	0
92	0
93	1
94	0
95	3
96	10
97	40
98	295
99	999
100	53
101	15
102	1
103	0
104	0
106	4
107	1
108	2
109	10
110	144
111	599
112	237
113	245
114	18
115	8
116	0
117	0
119	0
120	0
121	1
122	2
123	15
124	72
125	130
126	20
127	17
128	6
129	16
130	1
131	0
132	0
133	0
134	1
135	2
136	53
137	202
138	42
139	44
140	13
141	20
142	6
143	11
144	0
145	0
147	0
148	0
149	0
150	3
151	6
152	8
153	19
154	64
155	153
156	19
157	15
158	2
159	2
160	1
161	0
162	1
163	2
164	2
165	7
166	18
167	29
168	26
169	37
170	4
171	2
172	0
173	0
175	0
176	0
177	1
178	3
179	10
180	27
181	53
182	29
183	38
184	4
185	2
186	0
187	0
189	0
190	0
191	1
192	4
193	9
194	16
195	30
196	38
197	49
198	9
199	7
200	0
201	0
202	0
203	0
204	0
205	1
206	4
207	9
208	19
209	80
210	179
211	122
212	14
213	4
214	0
218	0
219	0
220	1
221	1
222	2
223	4
224	4
225	5
226	1
227	0
228	1
229	2
230	0
232	0
233	0
234	2
235	9
236	34
237	48
238	8
239	4
240	1
241	1
242	0
244	0
247	0
248	0
249	1
250	3
251	3
252	2
253	13
254	46
255	67
256	7
257	1
260	0
262	1
263	2
264	22
265	177
266	651
267	885
268	112
269	16
270	1
271	0
275	0
276	0
277	0
278	0
279	3
280	10
281	13
282	2
283	1
287	0
288	0
289	0
291	1
292	2
293	2
294	1
295	3
296	5
297	7
298	1
305	0
306	0
307	1
308	4
309	20
310	49
311	54
312	7
313	1
319	0
320	0
321	2
322	5
323	6
324	1
333	0
334	2
335	4
336	7
337	7
338	1
339	0
349	0
352	0
353	0
355	0
363	0
364	0
365	1
366	2
367	2
368	0
377	0
378	1
379	1
389	1
390	2
391	2
392	0
393	0
394	1
395	1
404	0
405	3
406	7
407	9
408	3
409	2
410	0
418	0
419	0
420	1
430	0
434	0
435	0
444	0
445	0
446	1
447	1
448	0
461	1
462	7
463	29
464	59
465	54
466	11
467	2
468	0
