Mass Spectrum: 1,2,3,4-Butanetetrol, 1,4-dibenzoate, (R*,R*)-
Formula: C18H18O6
CAS: 74793-37-6
Molecular weight: 330
m/z	intensity
27	7
28	2
29	4
30	0
31	7
38	0
39	4
40	0
41	1
42	2
43	11
44	8
45	3
50	10
51	45
52	3
53	0
55	3
56	1
57	2
58	0
60	3
61	3
62	0
63	0
65	1
66	0
68	3
69	1
71	0
73	5
74	3
75	3
76	10
77	203
78	15
79	12
80	0
82	0
86	12
87	0
91	4
92	4
93	0
94	0
103	0
104	5
105	999
106	71
107	4
118	1
121	0
122	13
123	48
124	3
135	4
136	3
148	2
152	0
153	0
160	0
165	80
166	9
167	1
177	31
178	9
179	1
181	0
190	11
191	1
195	18
196	2
208	1
209	0
227	11
228	1
269	25
270	4
271	0
282	7
283	1
294	4
295	1
299	2
313	0
