Mass Spectrum: Iron, carbonyl[(2,3,4,5-.eta.)-diethyl 2,4-hexadienedioate]bis(trimethyl phosphite-P)-
Formula: C17H32FeO11P2
CAS: 74792-82-8
Molecular weight: 530
m/z	intensity
27	40
28	63
29	87
30	6
31	27
32	0
33	1
35	0
36	0
37	0
38	0
39	9
41	25
42	1
43	7
44	4
45	40
46	2
47	68
48	6
49	4
50	6
51	20
52	34
53	19
54	6
55	7
56	9
57	5
59	0
61	1
62	14
63	188
64	3
65	2
66	1
67	2
68	3
69	17
70	1
71	10
73	8
74	0
75	0
76	0
77	8
78	1
79	105
80	35
81	37
82	4
83	12
84	2
85	1
86	1
87	9
88	2
89	1
90	0
92	3
93	999
94	64
95	9
96	3
97	142
98	9
99	5
100	8
101	18
102	2
103	3
104	1
105	3
106	1
107	31
108	32
109	119
110	50
111	10
112	1
113	1
114	1
115	1
116	0
117	8
118	1
119	20
120	2
121	4
122	1
123	15
124	68
125	68
126	9
127	3
128	1
129	1
130	1
131	4
132	1
133	10
134	10
135	135
136	15
137	27
138	38
139	17
140	3
141	6
142	2
143	0
144	0
145	3
146	4
147	5
148	2
149	11
150	8
151	44
152	20
153	70
154	40
155	11
156	3
157	1
158	1
159	1
160	0
161	1
162	2
163	11
164	29
165	162
166	16
167	12
168	6
169	7
170	7
171	7
172	1
173	2
174	1
175	1
176	1
177	2
178	5
179	30
180	65
181	316
182	219
183	29
184	3
185	1
186	1
187	1
188	0
189	0
190	0
191	1
192	1
193	3
194	3
195	36
196	6
197	13
198	8
199	2
200	1
201	4
202	2
203	1
204	2
205	2
206	9
207	6
208	125
209	101
210	42
211	568
212	42
213	14
214	2
215	1
216	1
217	0
218	0
219	0
220	0
221	1
222	0
223	5
224	7
225	57
226	90
227	13
228	3
229	2
230	1
231	1
232	1
233	0
234	0
235	0
236	0
237	1
238	1
239	15
240	6
241	7
242	1
243	17
244	2
245	1
246	0
247	1
248	0
249	0
250	0
251	6
252	42
253	30
254	636
255	92
256	14
257	5
258	12
259	3
260	5
261	1
262	0
269	1
270	0
271	4
272	1
273	6
274	8
275	3
276	1
277	1
278	0
279	0
280	0
281	0
283	2
284	1
285	33
286	6
287	5
288	3
289	27
290	3
291	1
292	0
294	0
295	0
297	0
299	0
300	0
301	2
302	37
303	9
304	560
305	58
306	14
307	1
316	4
317	1
318	0
319	2
320	0
329	0
330	4
331	5
332	69
333	79
334	12
335	2
336	0
345	4
346	1
347	59
348	9
349	9
350	3
351	0
363	1
364	0
372	0
374	0
375	0
376	40
377	10
378	630
379	106
380	18
381	2
407	0
409	5
410	1
423	0
425	5
426	1
430	0
444	0
445	0
446	0
455	0
457	8
458	1
469	2
470	0
471	4
472	1
473	0
476	1
477	0
478	0
483	0
485	42
486	1
487	0
497	0
498	0
499	12
500	7
501	1
502	66
503	13
504	2
505	0
