Mass Spectrum: Cyclopentanecarboxylic acid, 2-methyl-4-(phenylmethylene)-, methyl ester
Formula: C15H18O2
CAS: 74793-64-9
Molecular weight: 230
m/z	intensity
21	0
23	1
25	2
26	6
27	150
28	88
29	102
30	8
31	15
33	10
34	1
35	3
36	1
37	7
38	10
39	200
40	18
41	158
42	8
43	56
44	8
45	25
46	4
47	3
48	3
49	6
50	34
51	122
52	33
53	54
54	6
55	197
56	12
57	5
58	5
59	117
60	5
61	20
62	12
63	73
64	32
65	127
66	15
67	29
68	5
69	22
71	27
72	3
73	9
74	10
75	24
76	47
77	184
78	73
79	211
80	25
81	19
82	11
83	15
84	12
85	26
86	8
87	40
88	8
89	53
90	12
91	999
92	117
93	80
94	9
95	5
96	2
97	5
98	4
99	5
100	3
101	13
102	35
103	29
104	14
105	43
106	7
107	191
108	14
109	4
110	5
111	23
112	4
113	12
114	11
115	303
116	62
117	173
118	21
119	5
121	6
123	3
124	5
125	12
126	17
127	80
128	213
129	300
130	53
131	18
132	2
133	2
135	4
136	1
137	9
138	28
139	216
140	35
141	138
142	60
143	53
144	14
145	0
146	3
147	8
148	5
149	6
150	5
151	18
152	39
153	54
154	54
155	424
156	70
157	10
158	3
159	2
161	2
162	2
163	3
164	3
165	14
166	6
167	3
168	11
169	73
170	898
171	258
172	27
173	3
174	1
175	1
179	0
180	0
181	2
183	5
184	0
185	0
187	0
188	0
190	0
194	0
197	4
198	38
199	41
200	7
201	3
202	0
214	0
215	1
221	2
225	0
227	0
228	2
230	247
231	43
232	3
233	0
