Mass Spectrum: 1,2-Ethanediol, 1-(2-ethyl-1,3,2-dioxaborolan-4-yl)-, diacetate, (R*,S*)-
Formula: C10H17BO6
CAS: 74793-16-1
Molecular weight: 244
m/z	intensity
26	7
27	6
29	15
30	0
31	3
32	0
35	0
37	0
38	0
39	7
40	2
41	10
42	19
43	999
44	25
45	7
50	0
51	1
52	1
53	2
54	2
55	8
56	4
57	16
58	1
59	0
60	1
61	24
62	1
63	0
66	0
67	1
68	4
69	13
70	10
71	5
72	0
73	13
74	3
75	0
76	0
82	1
83	6
84	3
85	2
86	39
87	9
88	0
95	1
96	5
97	5
98	65
99	243
100	11
101	2
102	1
103	235
104	12
105	1
108	0
109	0
110	9
111	42
112	12
113	19
114	1
115	5
116	2
117	1
122	0
123	9
124	40
125	12
126	1
127	0
128	1
129	3
130	0
131	0
138	0
139	0
140	3
141	14
142	4
143	2
144	0
145	21
146	1
147	1
148	0
149	0
154	0
155	4
156	0
158	1
159	6
160	0
183	0
184	1
185	0
200	1
201	8
202	0
207	0
214	0
215	0
221	1
222	0
