Mass Spectrum: Carbamodithioic acid, [(benzoylamino)carbonyl]-, phenylmethyl ester
Formula: C16H14N2O2S2
CAS: 74793-42-3
Molecular weight: 330
m/z	intensity
27	48
28	11
30	0
31	2
32	121
33	11
34	6
35	1
36	3
37	23
38	49
39	112
40	9
41	17
42	6
43	5
44	10
45	112
46	6
47	8
48	1
49	13
50	123
51	249
52	27
53	8
54	1
57	0
58	28
59	241
60	28
61	25
62	35
63	66
64	32
65	132
66	8
67	1
68	0
69	8
70	25
71	3
72	1
73	9
74	35
75	27
76	32
77	517
78	47
79	14
80	1
81	0
82	1
84	1
85	2
86	9
87	4
88	4
89	35
90	20
91	999
92	79
93	4
94	0
95	0
96	0
97	2
98	0
99	0
100	0
101	0
102	1
103	5
104	6
105	617
106	48
107	3
108	1
109	0
110	0
116	0
117	0
118	1
119	1
120	0
121	26
122	13
123	15
124	273
125	23
126	12
127	1
128	0
129	0
130	1
134	1
136	0
137	0
146	0
147	226
148	22
149	2
150	4
151	0
152	0
155	1
163	0
164	0
165	0
166	4
167	0
168	0
176	0
181	0
183	31
184	3
185	3
186	0
191	7
193	0
206	0
207	37
208	6
209	6
210	0
211	0
221	0
225	0
239	0
246	0
266	0
267	0
268	0
271	0
297	3
298	0
314	1
330	92
331	4
332	2
333	0
