Mass Spectrum: 1,3,2-Dioxaborolane-4,5-dimethanol, 2-ethyl-, dibenzoate, (4S-trans)-
Formula: C20H21BO6
CAS: 74793-25-2
Molecular weight: 368
m/z	intensity
26	1
27	3
28	6
29	4
30	0
39	1
40	1
41	2
42	0
43	4
44	0
45	0
50	1
51	18
52	2
53	1
54	1
55	3
56	4
57	15
58	0
62	0
65	0
66	0
67	0
68	1
69	6
70	8
71	0
74	0
75	0
76	5
77	197
78	16
79	2
81	0
82	2
83	11
84	2
85	0
90	0
91	1
92	0
93	0
94	0
95	0
96	3
97	5
98	14
99	2
103	0
104	5
105	999
106	78
107	4
108	1
109	3
110	130
111	513
112	31
113	3
117	0
118	0
119	0
121	0
122	3
123	221
124	904
125	68
126	5
127	0
131	0
132	0
133	1
135	2
136	0
138	0
139	0
140	0
141	0
142	0
149	0
152	1
153	1
154	0
159	0
160	0
161	0
173	0
174	1
175	5
176	0
181	2
182	0
190	0
191	0
202	0
203	2
204	1
215	1
216	13
217	48
218	6
219	0
225	0
232	13
233	52
234	7
235	0
245	0
246	2
247	0
338	1
339	5
340	0
