Mass Spectrum: 1,3,2-Dioxaborolane-4,5-dimethanol, 2-phenyl-, diacetate, trans-
Formula: C14H17BO6
CAS: 74793-34-3
Molecular weight: 292
m/z	intensity
24	0
25	1
26	4
27	17
28	17
29	10
30	1
31	5
34	0
35	0
36	0
37	0
38	1
39	13
40	2
41	7
42	17
43	999
44	21
45	5
46	0
48	0
49	0
50	5
51	11
52	6
53	8
54	3
55	7
56	1
57	2
58	0
59	0
60	1
61	1
62	0
63	2
64	1
65	1
66	1
67	1
68	1
69	7
70	1
71	1
73	132
74	1
75	0
76	1
77	13
78	11
79	2
80	0
82	2
84	0
85	1
86	3
87	3
88	2
89	7
90	4
91	9
92	1
93	0
94	0
95	0
98	1
99	3
100	1
101	0
102	1
103	18
104	21
105	30
106	2
107	0
108	0
111	0
112	1
113	2
114	0
115	1
116	1
117	2
118	0
119	0
120	0
121	0
128	0
129	0
130	0
131	2
133	0
141	0
143	0
145	4
146	15
147	18
148	2
149	0
154	0
155	1
156	0
158	56
159	225
160	24
161	2
162	0
163	0
164	0
169	0
170	1
171	40
172	161
173	21
174	3
175	0
176	0
177	0
188	0
189	2
190	2
202	0
217	0
218	0
219	3
220	0
231	0
232	1
