Mass Spectrum: 1,3-Dioxane-4,6-dione, 2,2-dimethyl-5,5-bis(2-methyl-2-propenyl)-
Formula: C14H20O4
CAS: 74793-71-8
Molecular weight: 252
m/z	intensity
26	39
27	372
28	48
29	466
30	10
31	42
32	0
36	0
37	6
38	19
39	506
40	108
41	583
42	44
43	999
44	51
45	17
46	0
47	0
48	0
49	1
50	17
51	59
52	46
53	245
54	55
55	542
56	81
57	33
58	36
59	157
60	8
61	2
62	4
63	17
64	8
65	116
66	86
67	207
68	28
69	115
70	10
71	17
72	4
73	2
74	2
75	5
76	3
77	138
78	41
79	285
80	136
81	193
82	71
83	41
84	4
85	8
86	6
87	2
88	1
89	4
90	3
91	194
92	51
93	220
94	70
95	170
96	59
97	22
98	6
99	19
100	2
101	2
102	2
103	12
104	6
105	115
106	64
107	451
108	157
109	594
110	197
111	58
112	5
113	2
114	0
115	5
116	3
117	38
118	11
119	25
120	50
121	381
122	368
123	103
124	79
125	35
126	4
127	1
128	1
129	2
130	4
131	52
132	33
133	155
134	164
135	272
136	41
137	41
138	37
139	113
140	11
141	2
142	1
143	1
144	0
145	1
146	3
147	47
148	255
149	209
150	196
151	124
152	221
153	26
154	2
155	0
157	0
158	2
159	11
160	5
161	39
162	4
163	4
164	4
165	6
166	105
167	16
168	1
169	0
170	0
171	0
172	0
173	2
174	2
175	13
176	389
177	197
178	22
179	14
180	1
191	5
192	1
193	2
194	266
195	63
196	7
197	0
201	0
219	7
220	0
224	1
237	2
238	0
252	2
