Mass Spectrum: 2-Heptenedioic acid, 4-cyclopropyl-, dimethyl ester, (Z)-
Formula: C12H18O4
CAS: 74793-22-9
Molecular weight: 226
m/z	intensity
26	10
27	53
28	49
29	98
30	4
31	22
33	11
39	55
40	28
41	252
42	21
43	194
44	12
45	74
46	2
47	1
50	2
51	9
52	10
53	93
54	29
55	261
56	19
57	32
58	6
59	318
60	10
61	13
63	2
64	3
65	63
66	40
67	262
68	90
69	70
70	6
71	44
72	5
73	5
74	174
75	27
76	4
77	207
78	111
79	550
80	91
81	101
82	25
83	22
84	8
85	303
86	16
87	30
88	56
89	7
90	7
91	336
92	456
93	755
94	92
95	120
96	26
97	33
98	30
99	25
100	58
101	14
102	1
103	19
104	6
105	148
106	222
107	999
108	120
109	45
110	15
111	76
112	20
113	12
114	4
115	14
116	9
117	100
118	17
119	62
120	531
121	302
122	38
123	29
124	23
125	37
126	7
127	37
128	5
129	2
131	4
132	11
133	101
134	551
135	361
136	46
137	75
138	26
139	177
140	23
141	5
142	3
143	2
144	8
145	34
146	5
147	22
148	5
149	7
150	20
151	35
152	560
153	130
154	14
155	2
159	3
160	4
161	30
162	533
163	423
164	52
165	46
166	237
167	36
168	7
169	1
176	15
177	13
178	1
179	17
180	2
193	14
194	166
195	88
196	14
197	22
198	5
