Mass Spectrum: Propanedioic acid, bis(2-methyl-2-propenyl)-, dimethyl ester
Formula: C13H20O4
CAS: 74793-47-8
Molecular weight: 240
m/z	intensity
26	64
27	491
28	256
29	769
30	18
31	42
32	22
33	13
35	2
36	2
37	10
38	21
39	691
40	144
41	795
42	75
43	269
44	46
45	118
46	3
47	12
48	2
49	8
50	22
51	81
52	52
53	377
54	91
55	999
56	185
57	113
58	9
59	602
60	19
61	8
62	4
63	28
64	14
65	197
66	168
67	251
68	54
69	162
70	22
71	57
72	59
73	101
74	114
75	34
76	6
77	201
78	61
79	391
80	92
81	202
82	69
83	51
84	38
85	156
86	22
87	15
88	8
89	15
90	8
91	224
92	81
93	674
94	220
95	267
96	119
97	151
98	19
99	18
100	14
101	19
102	12
103	28
104	12
105	270
106	111
107	423
108	952
109	210
110	38
111	53
112	14
113	218
114	19
115	12
116	4
117	11
118	6
119	80
120	120
121	906
122	298
123	106
124	92
125	244
126	35
127	43
128	20
129	6
130	7
131	41
132	38
133	146
134	85
135	62
136	11
137	50
138	56
139	57
140	39
141	21
142	3
143	7
145	184
146	17
147	44
148	120
149	388
150	54
151	60
152	206
153	850
154	75
155	22
156	8
157	6
158	3
159	11
160	2
161	35
162	4
163	14
164	21
165	155
166	78
167	33
168	4
169	36
170	3
171	4
172	5
173	3
174	3
175	11
176	149
177	155
178	20
179	14
180	296
181	142
182	16
183	29
184	22
185	50
186	4
190	5
191	28
192	4
193	16
194	4
197	3
205	2
206	1
207	4
208	227
209	52
210	6
211	1
212	10
222	5
225	5
226	2
240	58
241	6
