Mass Spectrum: Carbamothioic acid, [(acetylamino)(phenylamino)methylene]-, S-ethyl ester
Formula: C12H15N3O2S
CAS: 74793-51-4
Molecular weight: 265
m/z	intensity
26	81
27	300
28	105
29	360
30	7
31	2
32	8
33	15
34	36
35	44
36	2
37	14
38	38
39	183
40	27
41	26
42	36
43	999
44	33
45	46
46	28
47	112
48	3
49	6
50	39
51	167
52	38
53	10
54	9
55	3
56	4
57	14
58	20
59	19
60	7
61	36
62	118
63	45
64	61
65	210
66	67
67	12
68	3
69	132
70	11
71	2
73	1
74	10
75	12
76	18
77	332
78	35
79	5
80	4
83	1
84	2
85	3
86	1
87	1
88	4
89	11
90	17
91	80
92	88
93	218
94	71
95	4
97	2
103	2
104	4
105	9
106	5
107	1
109	1
111	2
112	1
114	1
117	17
118	242
119	121
120	21
121	1
124	6
129	6
130	8
131	4
132	4
133	9
134	23
135	3
136	1
141	1
142	1
144	3
145	150
146	16
147	1
157	2
158	5
159	4
160	56
161	53
162	700
163	69
164	5
166	3
176	1
187	1
188	48
189	7
190	1
194	5
200	0
201	3
202	15
203	79
204	538
205	55
206	5
222	2
236	6
265	9
267	1
