Mass Spectrum: DL-Xylitol, cyclic 2,3-(ethylboronate) 1,4,5-triacetate
Formula: C13H21BO8
CAS: 74793-01-4
Molecular weight: 316
m/z	intensity
26	2
27	4
28	10
29	6
31	1
39	2
41	4
42	7
43	999
44	21
45	4
53	2
54	2
55	7
56	5
57	20
58	1
60	2
61	7
67	1
68	3
69	10
70	8
71	12
72	2
73	21
74	3
80	3
81	13
82	5
83	13
84	6
85	13
86	12
87	5
95	1
96	3
97	6
98	26
99	51
100	3
101	2
102	1
103	78
104	3
108	1
109	5
110	127
111	527
112	68
113	44
114	2
115	32
116	11
117	3
121	1
122	3
123	13
124	33
125	40
126	6
127	15
128	5
129	7
131	1
135	3
136	14
137	24
138	3
139	4
140	13
141	45
142	5
143	5
145	38
146	3
152	11
153	69
154	96
155	35
156	2
157	3
158	5
159	2
166	2
167	8
168	1
170	25
171	99
172	9
173	1
175	1
181	0
182	18
183	70
184	7
185	3
187	4
195	20
196	83
197	9
198	1
200	2
201	5
210	1
213	1
214	3
217	5
242	2
243	10
244	1
256	1
287	1
289	1
