Mass Spectrum: Cyclopropanecarboxylic acid, 2,2-dimethyl-3-(1-phenyl-2-propenyl)-, cis-
Formula: C15H18O2
CAS: 74793-52-5
Molecular weight: 230
m/z	intensity
26	13
27	125
28	23
29	78
30	1
31	11
32	2
34	0
36	0
37	2
38	9
39	197
40	24
41	211
42	15
43	121
44	8
45	22
46	1
47	2
48	0
49	1
50	26
51	107
52	30
53	60
54	8
55	54
56	8
57	24
58	4
59	24
60	1
61	1
62	11
63	55
64	19
65	106
66	16
67	102
68	11
69	26
70	8
71	22
72	1
73	5
74	10
75	19
76	27
77	132
78	53
79	38
80	8
81	13
82	21
83	22
84	10
85	21
86	4
87	7
88	11
89	44
90	10
91	371
92	33
93	23
94	4
95	148
96	14
97	7
98	2
99	3
100	8
101	10
102	51
103	39
104	31
105	40
106	4
107	18
108	3
109	3
110	1
111	12
112	4
113	298
114	34
115	603
116	132
117	898
118	141
119	26
120	3
121	3
122	2
123	2
124	1
125	8
126	12
127	77
128	235
129	632
130	999
131	133
132	27
133	12
134	2
135	3
136	2
137	2
138	2
139	21
140	5
141	64
142	46
143	209
144	31
145	21
146	4
147	3
149	53
150	5
151	5
152	16
153	19
154	20
155	30
156	14
157	55
158	31
159	8
160	2
161	1
162	1
163	1
164	1
165	7
166	3
167	13
168	7
169	87
170	22
171	81
172	13
173	6
174	10
175	5
176	1
177	1
178	2
179	3
180	1
181	3
182	3
183	6
184	56
185	128
186	20
187	16
188	10
189	2
194	0
195	1
196	1
197	16
198	2
199	0
200	1
201	19
202	4
203	1
205	2
206	1
207	0
211	1
212	3
213	2
215	160
216	25
217	3
223	2
224	0
229	1
230	203
231	32
232	3
