Mass Spectrum: 4,7-Methano-1H-indene, octahydro-2-(1-methylethylidene)-
Formula: C13H20
CAS: 74793-54-7
Molecular weight: 176
m/z	intensity
26	16
27	187
28	59
29	102
30	2
38	8
39	314
40	66
41	523
42	32
43	139
44	2
50	13
51	84
52	38
53	161
54	42
55	144
56	12
57	10
58	8
60	2
62	6
63	29
64	14
65	160
66	177
67	587
68	52
69	115
70	9
73	0
75	9
76	4
77	267
78	85
79	328
80	89
81	105
82	53
83	25
84	4
89	12
90	5
91	641
92	180
93	999
94	96
95	65
96	30
100	4
102	8
103	35
104	21
105	245
106	98
107	430
108	465
109	521
110	50
115	38
116	16
117	44
118	12
119	181
120	56
121	37
122	17
127	4
128	15
129	13
130	5
131	20
132	28
133	542
134	118
135	212
136	23
141	3
145	5
147	39
148	17
161	469
162	66
163	4
174	5
176	666
177	94
178	7
