Mass Spectrum: 1,2,3,4-Butanetetrol, 2,3-diacetate 1,4-dibenzoate, (R*,R*)-
Formula: C22H22O8
CAS: 74792-93-1
Molecular weight: 414
m/z	intensity
28	2
39	0
41	0
42	1
43	217
44	5
45	0
50	0
51	7
52	0
55	1
60	0
68	1
69	2
70	0
73	0
76	2
77	71
78	5
79	1
85	0
86	7
87	0
91	1
92	1
102	3
103	0
104	2
105	999
106	73
107	4
113	0
115	21
116	1
121	0
122	6
123	6
128	10
129	1
135	2
136	0
144	1
148	1
165	17
166	1
169	0
170	1
171	0
172	1
175	1
177	43
178	9
179	1
181	1
182	0
184	0
189	0
190	43
191	6
192	0
195	0
207	42
208	5
209	0
219	4
220	4
221	0
232	46
233	6
234	0
250	2
269	0
279	13
280	2
292	1
293	0
294	24
295	5
296	0
354	0
378	0
