Mass Spectrum: 1,2,3,4-Butanetetrol, 1,4-dibenzoate, (R*,S*)-
Formula: C18H18O6
CAS: 74793-33-2
Molecular weight: 330
m/z	intensity
26	0
27	2
28	2
29	11
30	1
31	16
32	8
33	0
39	2
41	1
42	1
43	8
44	7
45	3
50	2
51	22
52	2
55	2
56	1
57	2
58	0
60	4
61	0
65	1
67	0
68	1
69	1
70	0
71	0
73	5
74	0
75	1
76	5
77	164
78	14
79	21
80	1
83	0
86	24
87	1
90	0
91	6
92	6
93	0
94	0
103	1
104	4
105	999
106	70
107	4
111	0
118	1
119	0
121	0
122	20
123	97
124	9
125	0
135	6
136	3
148	1
149	2
152	0
153	0
165	201
166	22
167	3
177	10
178	5
179	0
181	0
190	3
191	0
195	34
196	3
197	1
208	1
209	0
227	5
228	0
269	8
270	1
282	0
299	0
