Mass Spectrum: Tricyclo[5.1.0.0(2,4)]oct-5-ene-5-propanoic acid, 3,3,8,8-tetramethyl-
Formula: C15H22O2
CAS: 74793-63-8
Molecular weight: 234
m/z	intensity
26	35
27	394
28	36
29	999
30	23
31	13
37	3
38	11
39	328
40	49
41	906
42	52
43	551
44	18
45	20
46	1
47	1
49	2
50	29
51	139
52	46
53	190
54	18
55	360
56	20
57	21
58	16
59	156
60	6
61	1
62	7
63	49
64	28
65	165
66	33
67	106
68	15
69	283
70	54
71	33
72	10
73	14
74	8
75	22
76	21
77	464
78	131
79	331
80	81
81	92
82	41
83	74
84	10
85	85
86	11
87	135
88	19
89	30
90	19
91	827
92	102
93	311
94	40
95	32
96	22
97	37
98	15
99	8
100	4
101	12
102	32
103	152
104	99
105	735
106	89
107	163
108	24
109	21
110	12
111	19
112	6
113	61
114	17
115	192
116	94
117	270
118	83
119	703
120	93
121	90
122	18
123	94
124	17
125	11
126	22
127	35
128	88
129	141
130	93
131	245
132	73
133	255
134	43
135	94
136	26
137	60
138	40
139	17
140	5
141	17
142	15
143	32
144	43
145	642
146	175
147	601
148	69
149	110
150	33
151	26
152	15
153	7
154	4
155	13
156	16
157	19
158	19
159	150
160	129
161	848
162	121
163	224
164	34
165	59
166	71
167	12
168	2
169	5
170	6
171	19
172	20
173	520
174	75
175	34
176	9
177	58
178	32
179	29
180	6
181	2
182	0
183	1
184	1
185	4
186	4
187	172
188	94
189	179
190	41
191	442
192	69
193	24
194	3
195	1
196	0
197	0
201	1
202	1
203	4
204	4
205	178
206	37
207	6
208	2
209	1
210	1
211	1
212	1
213	1
214	1
215	2
216	2
217	4
218	8
219	555
220	86
221	13
222	2
223	1
224	0
225	1
226	0
227	0
229	0
230	2
231	2
232	6
233	39
234	688
235	112
236	12
237	1
