Mass Spectrum: Carbamothioic acid, [[(3-methylbenzoyl)amino](phenylamino)methylene]-, S-ethyl ester
Formula: C18H19N3O2S
CAS: 74793-49-0
Molecular weight: 341
m/z	intensity
27	58
28	26
29	81
30	1
32	1
33	3
34	12
35	9
36	0
37	2
38	7
39	50
40	4
41	13
42	14
43	68
44	3
45	12
46	8
47	44
48	1
49	2
50	10
51	32
52	6
53	2
54	0
56	0
57	3
58	6
59	5
60	1
61	11
62	63
63	27
64	18
65	126
66	11
67	0
69	7
70	2
73	0
74	2
75	3
76	5
77	36
78	4
79	1
80	0
85	0
86	0
87	1
88	1
89	25
90	23
91	366
92	33
93	15
94	1
102	0
103	2
104	1
105	1
106	0
107	1
114	0
115	0
116	7
117	16
118	21
119	999
120	87
121	5
122	0
124	0
131	0
132	0
133	0
134	0
135	0
136	0
144	0
145	6
146	0
151	0
152	0
159	0
160	3
161	3
162	0
163	1
179	0
180	0
188	3
189	0
194	0
209	0
211	0
224	0
229	0
230	0
235	0
236	6
237	1
250	0
251	1
252	0
253	0
268	1
277	1
278	7
279	13
280	237
281	43
282	5
283	0
312	3
313	0
322	0
340	0
341	6
342	1
343	0
