Mass Spectrum: Zinc, bis[5-methyl-2-(1-methylethyl)cyclohexyl]-, [1.alpha.(1R*,2R*,5R*),2.beta.,5.alpha.]-
Formula: C20H38Zn
CAS: 74792-89-5
Molecular weight: 342
m/z	intensity
26	8
27	27
28	6
29	35
30	0
37	0
38	1
39	25
40	6
41	175
42	16
43	167
44	5
47	1
48	1
49	0
50	2
51	3
52	2
53	29
54	30
55	484
56	41
57	317
58	13
64	10
65	8
66	6
67	133
68	58
69	423
70	36
71	50
72	2
73	0
75	0
77	16
78	4
79	41
80	33
81	339
82	94
83	999
84	72
85	6
86	0
91	11
92	3
93	23
94	36
95	398
96	143
97	269
98	23
99	2
105	2
106	1
107	6
108	3
109	46
110	14
111	41
112	5
113	1
119	0
120	0
121	4
122	1
123	84
124	10
125	45
126	5
127	0
133	0
135	1
136	3
137	80
138	347
139	552
140	70
141	4
149	1
150	0
151	4
152	1
153	2
159	0
160	4
161	76
162	9
163	44
164	10
165	31
166	2
167	1
175	1
177	1
178	0
179	10
180	2
181	0
189	0
191	1
192	0
193	0
195	1
197	2
198	0
199	1
201	0
202	5
203	160
204	22
205	93
206	26
207	61
208	7
209	2
233	0
234	4
235	15
236	3
239	2
241	4
242	0
243	2
245	1
246	0
259	0
261	0
278	5
279	1
299	69
300	14
301	40
302	14
303	27
304	5
305	1
342	29
343	7
344	18
345	6
346	12
347	2
348	0
