Mass Spectrum: Borane, [1,2-bis(1-methylethyl)butyl]bis(1-methylethyl)-
Formula: C16H35B
CAS: 74792-79-3
Molecular weight: 238
m/z	intensity
22	0
23	0
24	1
25	1
26	10
27	80
28	1
29	23
30	0
32	1
34	0
35	0
36	0
37	9
38	7
39	53
40	219
41	999
42	56
43	112
44	0
45	3
46	0
47	0
49	0
50	3
51	6
52	13
53	48
54	27
55	142
56	19
57	10
59	1
61	0
62	0
63	1
64	1
65	3
66	6
67	31
68	60
69	265
70	19
71	19
72	0
74	0
77	1
78	0
79	2
80	2
81	13
82	10
83	51
84	14
85	2
91	1
93	0
94	0
95	4
96	15
97	87
98	3
105	0
108	0
109	2
110	1
111	12
112	0
113	0
114	0
116	0
117	0
119	0
120	0
124	18
125	21
126	1
138	3
139	15
140	6
141	0
151	0
153	1
194	2
195	10
196	1
