Mass Spectrum: Zinc, bis[2-(1,1-dimethyl-2-propenyl)-3,3-dimethylcyclopropyl]-, [1.alpha.(1R*,2R*),2.alpha.]-
Formula: C20H34Zn
CAS: 74793-76-3
Molecular weight: 338
m/z	intensity
27	92
28	8
29	119
30	3
31	1
32	0
37	1
38	2
39	89
40	24
41	571
42	32
43	309
44	10
45	0
47	1
48	4
49	0
50	3
51	15
52	9
53	127
54	18
55	251
56	15
57	363
58	16
59	0
62	0
63	3
64	5
65	35
66	21
67	281
68	34
69	446
70	30
71	6
72	0
73	0
75	1
76	0
77	61
78	11
79	84
80	22
81	308
82	103
83	22
84	2
85	1
86	1
87	1
88	0
89	1
90	1
91	74
92	14
93	84
94	16
95	999
96	75
97	6
98	0
99	0
101	0
102	0
103	4
104	1
105	26
106	6
107	96
108	23
109	81
110	41
111	4
112	0
115	0
117	1
118	0
119	9
120	2
121	54
122	27
123	13
124	2
125	0
127	0
128	0
129	0
131	107
132	7
133	65
134	13
135	44
136	114
137	720
138	81
139	4
145	0
146	0
147	0
148	0
149	1
150	0
159	0
161	0
162	0
163	0
174	0
176	0
177	0
187	0
191	0
200	1
201	102
202	14
203	60
204	16
205	41
206	5
207	1
229	0
241	1
243	0
245	0
256	2
257	0
258	1
259	0
260	1
269	0
270	0
271	0
272	0
273	0
282	0
284	0
295	0
323	6
324	1
325	3
326	1
327	2
328	0
337	0
338	34
339	7
340	19
341	6
342	13
343	3
344	0
