Mass Spectrum: Silane, ethenyl(iodomethyl)dimethyl-
Formula: C5H11ISi
CAS: 74793-14-9
Molecular weight: 226
m/z	intensity
26	4
27	7
28	13
29	49
30	3
31	28
32	2
33	1
39	6
40	1
41	8
42	17
43	242
44	68
45	73
46	6
47	2
53	9
54	3
55	69
56	10
57	37
58	83
59	526
60	39
61	18
62	0
66	1
67	13
68	3
69	24
70	12
71	48
72	40
73	12
74	2
75	1
77	0
78	0
79	0
81	5
82	1
83	113
84	52
85	999
86	101
87	37
88	1
95	1
97	2
99	716
100	75
101	26
102	1
127	1
128	2
139	0
141	1
147	1
152	1
153	0
155	108
156	15
157	42
158	2
159	1
162	0
165	1
166	1
167	6
168	1
169	12
170	31
171	515
172	33
173	18
181	2
182	4
183	102
184	28
185	211
186	15
187	7
195	0
197	6
198	4
199	69
200	5
201	2
209	2
210	2
211	594
212	56
213	22
214	1
224	0
225	0
226	333
227	36
228	11
229	0
