Mass Spectrum: Cyclopentanecarboxylic acid, 3-methylene-, 1,7,7-trimethylbicyclo[2.2.1]hept-2-yl ester
Formula: C17H26O2
CAS: 74793-59-2
Molecular weight: 262
m/z	intensity
26	15
27	107
28	25
29	75
30	3
31	3
32	1
35	0
37	1
38	3
39	96
40	23
41	314
42	18
43	86
44	6
45	5
47	0
48	3
49	1
50	6
51	18
52	16
53	124
54	31
55	141
56	10
57	35
58	6
59	3
61	0
62	0
63	3
64	1
65	28
66	21
67	110
68	28
69	134
70	10
71	19
72	8
73	1
74	1
75	2
76	0
77	63
78	15
79	143
80	101
81	999
82	76
83	24
84	5
85	1
86	4
87	0
89	1
90	0
91	36
92	39
93	155
94	27
95	250
96	21
97	8
98	1
99	1
100	1
101	0
102	0
103	1
104	1
105	10
106	4
107	27
108	98
109	282
110	60
111	15
112	1
113	0
115	0
117	0
119	3
120	1
121	85
122	9
123	6
124	1
125	3
126	2
127	1
128	0
129	0
133	0
134	1
135	14
136	110
137	491
138	55
139	6
140	0
147	0
151	0
152	3
153	14
154	12
155	1
156	0
165	0
181	1
193	0
208	0
209	0
210	1
219	0
247	0
262	22
263	4
264	0
