Mass Spectrum: 1,3-Dioxolane, 2-(1,1-dimethylethyl)-2-methyl-4,5-diphenyl-
Formula: C20H24O2
CAS: 74793-55-8
Molecular weight: 296
m/z	intensity
27	44
28	7
29	153
30	3
31	0
32	1
34	0
36	0
37	1
38	5
39	71
40	15
41	391
42	31
43	988
44	21
45	2
49	1
50	15
51	62
52	14
53	27
54	6
55	60
56	41
57	364
58	15
59	1
60	0
61	1
62	5
63	30
64	15
65	30
66	4
67	21
68	9
69	601
70	35
71	7
72	0
73	0
74	4
75	6
76	18
77	162
78	24
79	44
80	3
81	1
82	2
83	20
84	999
85	164
86	20
87	2
88	5
89	100
90	108
91	234
92	37
93	3
94	2
95	1
96	0
98	2
99	25
100	8
101	3
102	16
103	8
104	5
105	234
106	28
107	78
108	14
109	1
111	0
113	1
114	0
115	12
116	2
117	1
118	12
119	10
120	3
121	1
122	2
125	0
126	2
127	3
128	7
129	2
130	0
131	7
132	21
133	95
134	71
135	6
136	0
137	0
138	0
139	6
140	1
141	3
142	0
144	0
145	0
146	0
147	1
148	0
149	1
150	1
151	8
152	36
153	7
154	1
157	0
159	1
161	0
163	6
164	5
165	79
166	19
167	58
168	8
169	1
171	0
172	0
173	0
174	1
175	8
176	10
177	15
178	85
179	297
180	92
181	11
182	2
183	0
187	0
188	2
189	10
190	839
191	123
192	9
193	1
194	1
195	7
196	13
197	349
198	52
199	4
200	0
209	1
210	0
211	0
212	0
225	0
235	0
239	288
240	50
241	5
242	0
271	0
281	9
282	1
296	2
297	0
