Mass Spectrum: Carbamothioic acid, [[(3-methylbenzoyl)amino]carbonyl]-, S-ethyl ester
Formula: C12H14N2O3S
CAS: 74793-43-4
Molecular weight: 266
m/z	intensity
26	26
27	118
28	48
29	152
30	3
31	0
32	3
33	5
34	20
35	21
36	1
37	6
38	14
39	78
40	7
41	20
42	30
43	130
44	12
45	26
46	17
47	80
48	2
49	5
50	22
51	35
52	11
53	4
54	0
56	0
57	8
58	12
59	21
60	5
61	29
62	128
63	55
64	21
65	140
66	8
67	0
69	1
70	41
71	1
72	0
73	1
74	5
75	6
76	6
77	15
78	7
79	3
80	0
85	1
86	3
87	5
88	4
89	46
90	34
91	456
92	34
93	1
95	0
102	1
103	2
104	6
105	3
106	2
107	1
108	0
114	0
115	0
116	4
117	5
118	13
119	999
120	89
121	5
122	0
123	0
130	0
131	1
132	4
133	1
134	1
135	5
136	1
143	0
144	0
146	0
147	0
149	0
150	0
159	0
160	4
161	171
162	18
163	1
176	0
177	1
178	0
179	1
191	0
204	4
205	308
206	36
207	3
208	0
237	0
266	1
267	0
