Mass Spectrum: DL-Xylitol, 1-benzoate
Formula: C12H16O6
CAS: 74793-68-3
Molecular weight: 256
m/z	intensity
27	33
28	21
29	42
30	9
31	57
32	4
34	0
36	2
37	2
38	4
39	15
40	2
41	8
42	15
43	80
44	52
45	43
46	2
47	3
49	1
50	25
51	85
52	8
53	3
54	1
55	19
56	34
57	24
58	3
59	2
60	24
61	78
62	4
63	2
65	3
66	1
67	1
68	1
69	3
70	3
71	6
72	3
73	59
74	63
75	10
76	17
77	288
78	26
79	51
80	3
81	0
82	0
83	0
84	1
85	13
86	13
87	2
88	0
89	1
90	1
91	31
92	20
93	2
94	2
97	1
98	6
99	0
102	0
103	45
104	8
105	999
106	77
107	5
116	19
117	1
118	3
119	1
121	2
122	53
123	203
124	15
125	1
133	0
134	4
135	19
136	9
137	1
148	1
165	97
166	12
167	1
177	3
178	24
179	3
195	61
196	7
197	0
207	10
208	1
213	4
225	2
