Mass Spectrum: 1,2,3,4-Butanetetrol, 1,4-diacetate 2,3-dibenzoate, [S-(R*,R*)]-
Formula: C22H22O8
CAS: 74793-35-4
Molecular weight: 414
m/z	intensity
27	2
28	1
29	0
31	0
39	2
41	1
42	1
43	109
44	2
45	0
50	4
51	24
52	1
53	0
55	1
57	0
61	0
65	0
68	5
69	4
70	1
73	1
74	0
75	1
76	6
77	143
78	10
79	1
85	0
86	3
91	0
103	1
104	3
105	999
106	69
107	4
113	1
115	3
116	0
121	0
122	2
123	1
127	0
128	6
129	0
144	0
145	2
147	0
148	0
157	0
165	1
170	4
171	0
172	0
177	2
178	0
181	0
189	0
190	7
191	1
207	58
208	7
209	1
219	2
220	0
227	2
232	27
233	4
234	0
250	0
269	10
270	1
279	1
292	5
293	1
294	3
295	0
341	5
342	1
354	0
355	0
