Mass Spectrum: 4,7-Methano-1H-indene, octahydro-2-(phenylmethylene)-
Formula: C17H20
CAS: 74793-05-8
Molecular weight: 224
m/z	intensity
22	0
23	0
24	0
25	1
26	5
27	68
29	31
31	0
33	0
34	1
35	0
36	0
37	3
38	5
39	122
40	18
41	169
42	9
43	3
44	0
45	1
46	1
47	1
48	0
49	1
50	13
51	67
52	22
53	52
54	7
55	33
56	2
58	1
59	1
60	0
61	2
62	8
63	40
64	13
65	98
66	80
67	266
68	17
69	11
70	2
71	4
72	0
73	1
74	5
75	13
76	25
77	171
78	83
79	182
80	44
81	16
82	9
83	17
84	5
85	1
86	2
87	6
88	7
89	49
90	22
91	999
92	155
93	219
94	22
95	10
96	2
97	1
98	4
99	1
101	6
102	21
103	28
104	51
105	73
106	25
107	19
108	5
109	4
110	2
111	1
112	3
113	5
114	10
115	230
116	79
117	86
118	14
119	11
120	18
121	2
122	0
124	2
125	4
126	9
127	48
128	132
129	160
130	91
131	36
132	49
133	271
134	31
135	1
137	1
138	1
139	9
140	5
141	73
142	40
143	26
144	17
145	5
146	6
147	3
148	3
149	5
151	12
152	34
153	47
154	44
155	216
156	270
157	162
158	25
159	2
163	3
164	4
165	27
166	18
167	71
168	23
169	14
170	9
171	1
173	0
175	0
176	1
177	2
178	7
179	6
180	3
181	48
182	23
183	58
184	8
185	0
189	1
190	0
191	1
192	0
193	1
194	1
195	12
196	8
197	1
202	0
203	0
209	6
210	1
220	0
222	2
224	338
225	65
226	6
227	0
228	0
