Mass Spectrum: Cyclopentanemethanol, 3-methylene-
Formula: C7H12O
CAS: 74793-20-7
Molecular weight: 112
m/z	intensity
26	3
27	55
28	17
29	42
30	1
31	51
32	1
38	1
39	73
40	24
41	139
42	16
43	15
44	4
45	2
50	1
51	9
52	13
53	114
54	32
55	44
56	17
57	51
58	3
59	0
63	1
64	1
65	21
66	53
67	48
68	10
69	6
70	4
71	5
75	5
77	115
78	25
79	999
80	117
81	198
82	15
83	6
84	1
89	1
90	0
91	30
92	4
93	111
94	197
95	20
96	1
97	2
109	0
110	0
111	0
112	11
113	0
