Mass Spectrum: 2-Heptenedioic acid, 4-cyclopropyl-, dimethyl ester, (E)-
Formula: C12H18O4
CAS: 74793-21-8
Molecular weight: 226
m/z	intensity
26	12
27	54
28	66
29	96
30	4
31	25
33	11
38	1
39	64
40	31
41	290
42	24
43	200
44	14
45	76
46	1
47	1
50	2
51	8
52	11
53	107
54	36
55	299
56	21
57	33
58	7
59	446
60	11
61	15
63	3
64	3
65	65
66	43
67	435
68	134
69	81
70	7
71	64
72	6
73	6
74	175
75	26
76	3
77	205
78	108
79	545
80	110
81	105
82	28
83	18
84	11
85	691
86	40
87	34
88	53
89	7
90	6
91	312
92	444
93	866
94	104
95	151
96	25
97	34
98	28
99	31
100	107
101	40
102	3
103	12
104	5
105	108
106	243
107	999
108	115
109	45
110	14
111	82
112	18
113	12
114	4
115	9
116	7
117	62
118	13
119	48
120	517
121	302
122	37
123	24
124	21
125	35
126	9
127	75
128	7
129	2
130	1
131	3
132	10
133	82
134	587
135	474
136	57
137	67
138	33
139	147
140	18
141	4
142	1
143	1
144	5
145	16
146	3
147	20
148	5
149	6
150	20
151	36
152	590
153	143
154	14
155	2
159	2
160	4
161	21
162	565
163	353
164	42
165	36
166	290
167	68
168	8
169	1
176	14
177	11
178	2
179	14
180	1
193	11
194	175
195	122
196	17
197	16
198	3
208	0
226	14
227	2
