Mass Spectrum: 1,3,2-Dioxaborolane, 4,4'-(1,4-butanediyl)bis[2-ethyl-
Formula: C12H24B2O4
CAS: 74793-62-7
Molecular weight: 254
m/z	intensity
27	67
28	52
29	117
30	2
31	10
32	4
37	1
39	55
40	38
41	178
42	105
43	272
44	14
45	21
46	0
47	2
50	1
51	4
52	4
53	27
54	47
55	102
56	60
57	174
58	35
59	35
63	0
65	5
66	15
67	76
68	61
69	68
70	77
71	63
72	4
73	3
74	1
75	1
77	8
78	20
79	34
80	83
81	61
82	44
83	133
84	26
85	30
86	6
87	15
88	0
89	1
91	15
92	4
93	22
94	7
95	25
96	14
97	39
98	327
99	999
100	60
101	18
102	1
103	0
104	0
105	2
106	29
107	29
108	3
109	6
110	11
111	44
112	51
113	71
114	33
115	11
116	1
117	8
119	8
121	2
122	1
123	15
124	81
125	79
126	18
127	25
128	4
129	1
131	0
133	0
135	0
136	5
137	46
138	128
139	43
140	15
141	6
142	3
143	1
150	8
151	40
152	14
153	3
154	3
155	6
156	4
157	12
158	1
164	2
165	7
166	5
167	12
168	5
169	10
170	1
171	0
178	1
179	10
180	38
181	6
182	1
183	1
194	1
195	1
196	1
197	2
198	5
199	1
211	1
212	3
213	7
224	2
225	5
