Mass Spectrum: .alpha.-D-Ribopyranose, 5-thio-, cyclic 1,2:3,4-bis(ethylboronate)
Formula: C9H16B2O4S
CAS: 74793-32-1
Molecular weight: 242
m/z	intensity
27	123
28	51
29	179
30	1
31	4
33	1
34	2
35	2
36	1
37	4
38	7
39	73
40	16
41	49
42	38
43	40
44	7
45	179
46	35
47	30
48	2
49	2
50	6
51	9
52	11
53	45
54	28
55	90
56	42
57	128
58	38
59	121
60	24
61	26
62	2
63	2
64	1
65	4
66	5
67	9
68	12
69	100
70	291
71	31
72	9
73	15
74	9
75	5
76	1
77	1
78	1
79	4
80	3
81	13
82	32
83	100
84	26
85	75
86	22
87	37
88	22
89	11
90	1
91	1
92	1
93	5
94	2
95	8
96	26
97	275
98	999
99	86
100	14
101	18
102	7
103	3
104	1
105	0
106	0
107	2
108	4
109	15
110	100
111	323
112	44
113	43
114	42
115	114
116	10
117	5
118	0
120	1
121	0
122	1
123	23
124	109
125	90
126	15
127	27
128	19
129	16
130	10
131	17
132	1
133	1
135	1
136	4
137	12
138	13
139	32
140	10
141	20
142	52
143	34
144	64
145	10
146	4
147	0
148	0
149	1
150	1
151	4
152	56
153	205
154	29
155	6
156	13
157	46
158	7
159	3
160	0
163	1
164	8
165	47
166	95
167	20
168	13
169	8
170	5
171	5
172	1
177	0
178	1
179	4
180	5
181	4
182	3
183	4
184	2
185	13
186	32
187	4
188	1
191	0
193	3
194	21
195	51
196	32
197	4
198	5
199	10
200	1
201	0
205	0
206	4
207	29
208	101
209	128
210	13
211	2
212	9
213	20
214	4
215	1
223	0
224	0
227	0
239	0
240	13
241	95
242	180
243	25
244	11
245	1
