Mass Spectrum: Ruthenium, bis[(1,2,3-.eta.)-2-methyl-2-propenyl]bis(trimethylphosphine)-
Formula: C14H32P2Ru
CAS: 74792-85-1
Molecular weight: 364
m/z	intensity
26	50
27	209
28	159
29	114
30	4
31	2
32	3
33	9
34	6
35	6
36	3
37	8
38	19
39	362
40	107
41	835
42	39
44	41
45	336
46	66
47	115
48	13
49	6
50	12
51	27
52	15
53	61
54	28
55	181
56	362
57	231
58	102
59	630
60	55
61	999
62	23
63	1
65	9
66	4
67	40
68	35
69	8
70	2
71	9
72	0
73	40
74	5
75	169
76	657
77	63
78	8
79	9
80	3
81	13
82	5
85	1
91	46
92	5
93	16
94	1
95	65
96	5
105	7
106	14
107	2
108	6
109	4
110	10
111	1
126	1
127	2
128	2
129	2
133	2
138	1
140	5
141	2
142	3
143	12
144	11
145	17
146	28
147	8
148	19
149	5
150	5
151	2
152	5
153	10
154	9
155	18
156	23
157	16
158	37
159	40
160	28
161	50
162	15
163	32
164	16
165	9
166	8
167	11
168	7
169	14
170	19
171	18
172	22
173	22
174	34
175	39
176	39
177	47
178	25
179	28
180	19
181	17
182	18
183	19
184	34
185	46
186	36
187	51
188	34
189	33
190	35
191	34
192	37
193	38
194	35
195	25
196	43
197	46
198	61
199	71
200	64
201	99
202	63
203	111
204	62
205	89
206	154
207	164
208	159
209	254
210	66
211	157
212	61
213	41
214	59
215	43
216	59
217	39
218	44
219	66
220	73
221	100
222	123
223	93
224	99
225	87
226	57
227	66
228	52
229	87
230	95
231	91
232	116
233	40
234	76
235	40
236	36
237	50
238	34
239	48
240	32
241	31
242	27
243	42
244	44
245	58
246	83
247	47
248	57
249	80
250	74
251	102
252	129
253	65
254	77
255	38
256	16
257	13
258	10
259	12
260	12
261	15
262	14
263	22
264	30
265	38
266	40
267	58
268	59
269	48
270	58
271	29
272	34
273	27
274	16
275	18
276	21
277	20
278	82
279	54
280	104
281	211
282	288
283	329
284	535
285	234
286	474
287	156
288	226
289	55
290	80
291	33
292	14
293	26
294	6
295	20
296	9
297	19
298	22
299	47
300	53
301	99
302	96
303	151
304	143
305	239
306	106
307	215
308	28
309	87
310	14
311	2
321	2
322	4
324	2
341	1
342	1
343	1
344	4
345	5
346	7
347	11
348	2
349	6
350	1
352	2
353	2
354	8
355	7
356	27
357	30
358	64
359	87
360	122
361	147
362	233
363	122
364	239
365	41
366	98
367	16
