Mass Spectrum: DL-Xylitol, 2,3-diacetate 1,4,5-tribenzoate
Formula: C30H28O10
CAS: 74793-67-2
Molecular weight: 548
m/z	intensity
27	1
28	1
29	0
39	1
41	0
42	1
43	160
44	4
45	0
50	3
51	17
52	1
55	2
57	0
65	0
68	1
69	1
73	1
74	0
75	1
76	5
77	116
78	8
79	1
81	1
85	2
86	0
91	0
97	1
98	3
99	0
102	2
103	0
104	3
105	999
106	72
107	4
115	8
122	6
123	4
127	2
139	0
140	4
141	1
144	0
157	0
163	0
165	3
177	17
178	5
179	0
181	1
187	9
188	0
189	1
190	1
200	1
201	0
202	9
203	2
207	12
208	1
219	7
220	10
221	1
227	4
228	0
232	3
233	0
244	2
249	7
250	1
261	3
262	10
263	1
269	28
270	5
271	0
279	16
280	2
281	0
304	3
305	0
306	1
311	1
323	1
324	6
325	1
341	8
342	1
366	18
367	4
368	0
413	9
414	2
426	0
427	0
