Mass Spectrum: 2,2'-Bioxepane
Formula: C12H22O2
CAS: 74793-02-5
Molecular weight: 198
m/z	intensity
25	2
26	9
27	54
28	16
29	99
30	6
31	23
32	0
33	0
36	0
38	2
39	63
40	23
41	207
42	110
43	297
44	8
45	11
48	1
50	1
51	4
52	4
53	26
54	28
55	501
56	57
57	165
58	8
59	4
60	3
63	2
64	1
65	3
67	41
68	21
69	59
70	18
71	28
72	3
73	28
74	0
75	3
77	5
78	7
79	20
80	6
81	639
82	43
83	42
84	27
85	6
86	7
87	1
89	1
91	7
92	3
93	6
94	3
95	5
96	2
97	9
98	427
99	999
100	62
101	7
102	1
103	2
104	2
105	1
106	0
107	1
108	1
109	4
110	2
111	2
112	6
113	1
114	12
115	0
116	0
117	1
118	0
119	1
120	1
121	3
122	1
123	2
124	1
125	14
126	1
127	1
128	6
129	2
130	1
131	3
132	2
133	1
136	1
137	1
139	0
140	1
141	3
143	0
144	1
145	0
146	0
147	2
148	1
150	0
151	1
153	1
154	1
156	1
158	1
160	2
161	1
162	2
163	1
164	0
166	1
169	1
178	0
180	3
182	1
197	2
198	1
