Mass Spectrum: Benzoic acid, 4-chloro-2-[(2-furanylmethyl)amino]-
Formula: C12H10ClNO3
CAS: 74793-12-7
Molecular weight: 251
m/z	intensity
44	32
51	19
52	18
53	153
63	13
64	56
69	30
81	999
82	80
96	95
97	10
232	18
250	16
251	28
