Mass Spectrum: 2,5-Cyclohexadien-1-one, 4,4-dimethyl-, phenylhydrazone
Formula: C14H16N2
CAS: 74793-61-6
Molecular weight: 212
m/z	intensity
24	0
25	0
26	7
27	56
28	21
29	10
30	2
31	0
33	1
34	2
35	0
36	0
37	3
38	16
39	143
40	16
41	41
42	5
43	1
45	1
46	1
47	1
48	0
49	2
50	21
51	111
52	37
53	25
54	7
55	3
56	0
57	0
58	0
59	0
60	0
61	2
62	6
63	31
64	20
65	168
66	25
67	6
68	1
69	0
71	0
72	1
73	1
74	3
75	7
76	10
77	999
78	100
79	23
80	4
81	2
82	0
84	24
85	1
87	3
88	1
89	8
90	8
91	154
92	33
93	34
94	5
95	0
97	5
98	3
99	0
101	0
102	2
103	5
104	17
105	38
106	19
107	20
108	2
109	3
113	0
115	2
116	1
117	2
118	5
119	8
120	23
121	3
122	0
127	0
128	1
129	0
130	1
131	0
132	0
133	1
134	0
138	0
139	0
140	0
141	1
142	0
143	0
144	0
149	0
151	0
152	5
153	2
154	3
155	0
156	0
157	0
158	0
159	1
160	0
161	0
163	0
164	0
165	3
166	2
167	2
168	1
169	1
170	0
171	0
179	0
180	2
181	7
182	6
183	5
184	2
185	1
186	0
189	2
190	0
191	0
193	1
195	5
197	339
198	49
199	3
201	0
210	1
211	3
212	89
213	13
214	1
