Mass Spectrum: 1,3-Butadiene, 2-(bromomethyl)-3-methyl-
Formula: C6H9Br
CAS: 74793-41-2
Molecular weight: 160
m/z	intensity
26	32
27	185
28	21
29	53
30	1
31	30
32	0
35	0
36	3
37	29
38	78
39	484
40	124
41	521
42	33
43	9
44	1
45	9
48	0
49	7
50	46
51	77
52	67
53	439
54	39
55	98
56	6
57	3
58	1
59	11
60	1
61	7
62	14
63	28
64	7
65	100
66	75
67	33
68	2
69	10
70	2
71	0
72	0
73	2
74	9
75	7
76	5
77	80
78	17
79	308
80	90
81	999
82	67
83	6
84	0
87	0
88	1
89	0
90	0
91	3
92	1
93	4
94	0
95	4
96	1
97	2
98	9
99	0
101	2
102	0
103	1
104	0
105	3
106	0
107	0
108	0
109	0
113	0
115	0
116	17
117	2
118	5
119	2
120	3
121	1
122	2
123	0
127	0
128	0
129	0
130	0
131	0
132	0
133	0
134	0
145	3
146	0
147	1
159	0
160	175
161	12
162	171
163	12
164	0
