Mass Spectrum: 1H-1-Benzoborole, 6-bromo-1-ethyl-2,3-dihydro-
Formula: C10H12BBr
CAS: 74792-95-3
Molecular weight: 222
m/z	intensity
27	28
28	13
29	7
30	0
31	2
32	0
36	7
37	26
38	7
39	37
40	16
41	26
42	1
43	1
44	0
45	1
46	0
48	0
49	3
50	21
51	42
52	10
53	15
54	2
55	5
56	2
57	4
58	1
60	18
61	73
62	23
63	45
64	11
65	19
66	4
67	6
68	5
69	9
70	4
71	4
72	1
73	9
74	29
75	38
76	17
77	37
78	10
79	5
80	4
81	2
82	4
84	4
85	16
86	42
87	142
88	53
89	140
90	24
91	16
92	5
93	5
94	1
95	2
96	3
97	11
98	9
99	11
100	30
101	47
102	24
103	46
104	14
105	12
106	3
107	7
108	1
109	1
110	4
111	19
112	76
113	306
114	369
115	999
116	102
117	33
118	12
119	15
120	2
121	1
122	1
123	1
124	6
125	18
126	46
127	52
128	21
129	21
130	15
131	22
132	3
133	2
134	0
135	1
136	2
137	8
138	9
139	27
140	18
141	30
142	24
143	83
144	12
145	2
146	3
147	6
148	6
149	1
150	1
152	1
153	3
154	5
155	5
156	2
157	2
159	3
160	1
161	2
162	1
164	5
165	18
166	32
167	139
168	41
169	133
170	13
171	13
172	6
173	2
174	1
175	2
176	0
177	2
178	6
179	13
180	19
181	21
182	26
183	15
184	13
185	6
186	2
187	2
188	6
189	17
190	15
191	60
192	105
193	284
194	555
195	265
196	456
197	41
198	3
200	0
201	1
203	1
204	6
205	6
206	8
207	13
208	6
209	13
210	4
211	7
212	2
213	2
214	1
215	1
217	2
218	3
219	2
220	3
221	95
222	379
223	126
224	368
225	43
