Mass Spectrum: 1,9,12,20-Tetraoxa-4,6,15,17-tetraazacyclodocosane-5,16-dithione
Formula: C14H28N4O4S2
CAS: 74804-40-3
Molecular weight: 380
m/z	intensity
54	80
55	50
56	110
57	90
58	60
59	100
60	290
61	50
69	320
70	120
71	80
72	110
73	60
74	80
82	70
85	260
86	999
87	180
88	140
89	70
101	140
102	220
103	310
106	120
113	100
115	140
116	250
117	60
119	80
127	130
128	280
129	310
130	290
131	70
132	60
145	270
146	260
147	160
157	110
160	170
165	100
173	60
189	60
190	320
191	170
209	70
210	100
234	60
235	30
278	80
279	50
337	110
380	430
381	70
