Mass Spectrum: Cyclohexane, 1,2-dimethyl-3,5-bis(1-methylethenyl)-, (1.alpha.,2.beta.,3.beta.,5.alpha.)-
Formula: C14H24
CAS: 74806-55-6
Molecular weight: 192
m/z	intensity
37	1
38	1
39	55
40	25
41	462
42	25
43	182
47	0
49	1
50	3
51	4
52	5
53	128
54	29
55	447
56	44
57	72
58	2
59	22
60	0
63	1
64	1
65	35
66	23
67	413
68	193
69	419
70	31
71	18
72	1
73	7
74	16
75	3
76	1
77	91
78	17
79	254
80	174
81	541
82	290
83	116
84	8
85	3
86	0
89	2
90	1
91	160
92	47
93	567
94	228
95	409
96	136
97	37
98	3
101	1
103	5
104	2
105	78
106	79
107	999
108	319
109	264
110	59
111	14
112	1
113	1
115	2
116	1
117	5
118	1
119	29
120	17
121	381
122	338
123	331
124	71
125	6
131	2
133	10
134	7
135	191
136	130
137	58
138	5
147	2
148	6
149	428
150	129
151	16
152	0
163	57
164	325
165	42
166	3
175	0
176	0
177	115
178	17
179	1
191	0
192	73
193	11
194	1
