Mass Spectrum: Cyclohexane, 1,2-dimethyl-3,5-bis(1-methylethenyl)-, (1.alpha.,2.beta.,3.beta.,5.beta.)-
Formula: C14H24
CAS: 74806-56-7
Molecular weight: 192
m/z	intensity
27	46
28	51
29	146
30	2
37	0
38	1
39	66
40	30
41	570
42	44
43	270
44	10
45	0
48	1
49	1
50	3
51	5
52	5
53	161
54	40
55	575
56	57
57	88
58	5
59	2
61	1
63	1
64	1
65	40
66	31
67	551
68	274
69	585
70	40
71	19
72	2
73	4
75	3
76	1
77	105
78	21
79	306
80	530
81	738
82	546
83	155
84	11
85	3
86	1
89	1
90	1
91	179
92	62
93	762
94	256
95	556
96	226
97	58
98	5
99	1
103	7
104	3
105	95
106	52
107	999
108	451
109	369
110	73
111	19
112	1
113	1
115	2
116	3
117	5
118	2
119	38
120	21
121	583
122	241
123	243
124	70
125	6
129	1
130	0
131	2
132	1
133	13
134	11
135	302
136	201
137	77
138	7
139	0
145	1
147	3
148	10
149	747
150	215
151	24
152	1
161	1
162	1
163	141
164	49
165	5
166	0
175	1
176	1
177	198
178	28
179	1
186	0
191	3
192	336
193	50
194	4
