Mass Spectrum: Silane, 1,7-octadiene-1,8-diylbis[trimethyl-
Formula: C14H30Si2
CAS: 74807-81-1
Molecular weight: 254
m/z	intensity
26	8
27	6
28	0
29	8
30	0
31	18
33	0
36	0
39	5
40	1
41	10
42	1
43	51
44	14
45	85
46	5
47	2
49	0
50	1
51	0
52	0
53	3
54	1
55	11
56	1
57	10
58	19
59	257
60	19
61	8
62	0
63	0
65	1
66	1
67	7
68	2
69	11
70	3
71	16
72	17
73	999
74	83
75	36
76	1
77	1
78	3
79	14
80	8
81	7
82	2
83	31
84	4
85	69
86	8
87	8
88	0
89	0
91	3
92	3
93	4
94	1
95	17
96	6
97	24
98	27
99	21
100	4
101	5
102	0
103	2
104	1
105	9
106	25
107	7
108	1
109	17
110	3
111	15
112	35
113	6
114	5
115	6
116	1
117	5
118	1
119	2
120	1
121	5
122	1
123	27
124	5
125	11
126	3
127	16
128	5
129	6
130	1
131	6
132	1
133	15
134	2
135	9
136	1
137	32
138	32
139	28
140	12
141	4
142	0
143	1
144	0
145	3
146	0
147	13
148	3
149	18
150	3
151	184
152	29
153	10
154	27
155	7
156	1
157	2
158	0
159	1
161	1
162	2
163	5
164	4
165	40
166	26
167	8
168	2
169	1
170	0
171	0
172	0
173	0
174	0
175	0
177	0
178	1
179	1
180	49
181	16
182	3
183	0
184	0
186	3
187	0
191	0
193	0
195	0
197	2
198	0
199	0
200	0
205	0
207	0
211	0
212	0
213	1
219	0
220	0
221	1
222	0
223	0
225	0
234	0
235	0
237	0
238	0
239	1
240	0
241	1
252	0
254	10
255	2
256	1
