Mass Spectrum: Borinic acid, diethyl-, [2-(cyclohexylimino)cyclooctyl]phenylmethyl ester
Formula: C25H40BNO
CAS: 74810-35-8
Molecular weight: 381
m/z	intensity
27	140
28	80
29	186
30	52
31	2
32	0
37	14
38	18
39	125
40	89
41	932
42	73
43	96
44	21
48	2
49	10
50	72
51	132
52	43
53	88
54	154
55	999
56	113
57	71
58	55
59	5
61	4
62	7
63	12
64	2
65	25
66	16
67	192
68	79
69	209
70	72
71	18
72	8
73	7
74	19
75	13
76	17
77	304
78	67
79	60
80	52
81	102
82	130
83	454
84	57
85	11
86	3
88	1
89	10
90	16
91	765
92	70
93	24
94	33
95	34
96	77
97	106
98	102
99	13
100	5
101	2
102	10
103	23
104	124
105	402
106	279
107	29
108	29
109	30
110	51
111	23
112	15
113	4
114	3
115	77
116	30
117	359
118	61
119	25
120	11
121	7
122	35
123	52
124	70
125	23
126	85
127	15
128	29
129	57
130	61
131	37
132	13
133	6
134	15
135	5
136	75
137	22
138	24
139	38
140	5
141	20
142	11
143	23
144	14
145	8
146	7
147	8
148	7
149	2
150	23
151	11
152	112
153	24
154	8
155	12
156	25
157	12
158	13
159	9
160	4
161	1
162	6
163	4
164	108
165	44
166	24
167	6
168	6
169	10
170	30
171	13
172	11
173	8
174	27
175	96
176	18
177	5
178	89
179	190
180	31
181	6
182	7
183	4
184	15
185	12
186	16
187	5
188	5
190	3
191	4
192	40
193	35
194	48
195	9
196	7
197	30
198	13
199	14
200	16
201	4
202	2
204	8
205	4
206	148
207	86
208	16
209	3
210	4
211	6
212	36
213	32
214	113
215	21
216	5
217	1
218	2
220	63
221	11
222	2
224	5
225	3
226	12
227	6
228	20
229	6
230	6
231	5
233	2
238	8
239	4
240	23
241	13
242	21
243	4
244	2
245	2
246	5
252	9
253	4
254	9
255	6
256	3
257	1
263	1
266	6
267	5
268	65
269	116
270	421
271	81
272	10
273	1
274	2
275	2
276	7
280	2
281	10
282	47
283	14
284	3
288	2
289	2
291	1
292	1
293	2
294	14
295	24
296	903
297	221
298	47
299	11
300	2
309	5
310	16
311	6
312	8
313	4
322	1
323	28
324	123
325	40
326	17
327	4
328	2
337	3
338	16
339	4
345	2
351	115
352	471
353	120
354	17
355	2
366	4
378	1
379	10
380	94
381	245
382	75
383	10
384	1
