Mass Spectrum: 1,3,2-Dioxaborolane, 2-ethyl-4-(3-oxiranylpropyl)-
Formula: C9H17BO3
CAS: 74810-66-5
Molecular weight: 184
m/z	intensity
25	14
26	134
27	849
28	420
29	999
30	39
31	397
32	9
33	1
36	5
37	28
38	55
39	767
40	276
41	927
42	698
43	880
44	140
45	131
46	1
47	1
48	2
49	2
50	23
51	50
52	41
53	227
54	305
55	526
56	268
57	648
58	173
59	133
60	5
61	3
62	4
63	11
64	4
65	45
66	77
67	347
68	228
69	420
70	467
71	336
72	33
73	11
74	4
75	7
76	1
77	35
78	17
79	132
80	90
81	173
82	105
83	204
84	136
85	118
86	45
87	127
88	5
89	6
90	1
91	15
92	19
93	55
94	30
95	61
96	60
97	234
98	434
99	922
100	65
101	18
102	1
103	0
107	1
108	5
109	25
110	98
111	203
112	136
113	78
114	10
115	10
116	6
117	0
121	0
122	3
123	40
124	198
125	245
126	90
127	39
128	8
129	1
135	0
136	16
137	81
138	50
139	13
140	14
141	18
142	3
143	5
149	0
150	6
151	51
152	113
153	24
154	11
155	29
156	4
164	0
165	4
166	6
169	0
