Mass Spectrum: Benzene, 1-(1,3-dimethoxypropoxy)-2-methyl-
Formula: C12H18O3
CAS: 74810-86-9
Molecular weight: 210
m/z	intensity
38	14
39	88
41	70
42	14
43	61
45	694
46	17
50	23
51	59
52	27
53	25
55	18
57	104
58	25
59	86
60	12
62	10
63	28
64	15
65	91
66	13
71	128
72	14
73	27
75	34
77	116
78	46
79	78
80	44
89	179
90	58
91	150
92	25
93	14
94	17
103	35
105	37
108	999
109	115
119	22
121	30
122	51
133	61
196	204
197	14
205	10
210	36
