Mass Spectrum: Palladium, bis[(1,2,3-.eta.)-2-methyl-2-propenyl](trimethylphosphine)-
Formula: C11H23PPd
CAS: 74811-10-2
Molecular weight: 292
m/z	intensity
26	79
27	455
28	92
29	310
30	8
31	4
32	9
33	10
34	4
35	4
36	5
37	43
38	66
39	534
40	298
41	208
42	9
43	4
44	67
45	334
46	53
47	97
48	17
49	31
50	90
51	81
52	39
53	182
54	181
55	399
56	74
57	232
58	76
59	621
60	53
61	999
62	24
63	2
65	2
66	2
67	11
68	12
69	6
71	7
72	3
73	44
74	7
75	179
76	638
77	38
78	2
79	4
81	5
82	1
91	8
93	3
95	19
97	2
98	3
100	1
102	3
104	39
105	85
106	109
107	6
108	89
109	10
110	47
111	3
112	5
113	5
114	5
115	3
116	2
118	1
119	7
120	16
121	15
122	4
123	13
124	2
125	5
126	1
128	2
129	5
130	4
131	58
132	104
133	136
134	45
135	149
136	7
137	89
138	5
139	18
140	1
142	3
143	16
144	25
145	36
146	21
147	33
148	10
149	23
150	8
151	10
152	7
153	9
154	2
155	12
156	8
157	38
158	36
159	257
160	436
161	545
162	39
163	502
164	33
165	218
166	14
167	5
168	8
169	5
170	3
171	4
172	1
173	1
174	2
175	2
176	3
177	3
178	2
179	30
180	57
181	71
182	12
183	68
184	12
185	28
186	6
199	1
201	1
203	2
212	8
213	1
214	80
215	165
216	198
217	18
218	182
219	17
220	81
221	7
233	2
235	12
236	30
237	40
238	2
239	34
240	3
241	16
281	1
290	3
291	9
292	11
293	1
294	10
295	2
296	4
