Mass Spectrum: 2-Octene, 1,1,2-trifluoro-
Formula: C8H13F3
CAS: 74810-70-1
Molecular weight: 166
m/z	intensity
26	51
27	483
28	84
29	999
30	19
31	27
32	10
33	33
36	1
37	5
38	28
39	433
40	41
41	989
42	478
43	144
44	4
45	18
46	19
47	16
49	3
50	22
51	190
52	21
53	46
54	18
55	393
56	122
57	553
58	33
59	188
60	9
61	11
62	2
63	11
64	23
65	27
66	6
67	16
68	8
69	66
70	509
71	46
72	24
73	32
74	3
75	18
76	2
77	72
78	4
79	11
80	1
81	9
82	7
83	37
84	8
85	38
86	6
87	10
88	8
89	78
90	75
91	21
92	0
94	1
95	95
96	8
97	11
99	6
101	10
102	5
103	12
104	8
105	5
106	1
107	10
108	8
109	40
111	2
114	1
115	40
116	2
117	3
119	1
121	4
122	9
123	8
127	4
128	0
131	2
138	8
151	1
166	26
167	2
