Mass Spectrum: 2-Butanol, 3-(1,3,3-trimethylbutoxy)-
Formula: C11H24O2
CAS: 74810-44-9
Molecular weight: 188
m/z	intensity
26	3
27	55
28	8
29	103
30	3
31	23
32	0
33	2
37	0
38	0
39	32
40	8
41	168
42	22
43	170
44	13
45	229
46	5
47	1
50	0
51	1
52	1
53	10
54	2
55	119
56	60
57	999
58	44
59	15
60	0
65	0
66	0
67	4
68	2
69	35
70	7
71	11
72	6
73	356
74	16
75	3
77	0
79	0
81	0
82	0
83	55
84	6
85	4
86	0
87	0
88	0
89	14
90	2
91	4
97	1
98	5
99	354
100	28
101	13
102	1
109	0
111	0
113	0
115	3
116	0
117	54
118	3
119	0
123	0
127	0
142	0
143	68
144	6
145	0
