Mass Spectrum: Rhodium, di-.mu.-chlorobis(.eta.4-1,2-diethenylcyclohexane)di-, stereoisomer
Formula: C20H32Cl2Rh2
CAS: 74811-01-1
Molecular weight: 548
m/z	intensity
26	66
27	443
28	96
29	188
30	5
31	24
32	0
35	59
36	418
37	20
38	127
39	567
40	89
41	815
42	52
43	30
44	2
45	5
46	0
47	2
48	1
49	3
50	38
51	118
52	72
53	281
54	767
55	233
56	12
57	5
58	8
59	8
60	0
61	1
62	8
63	35
64	13
65	140
66	110
67	999
68	165
69	46
70	2
71	1
72	1
73	2
74	6
75	9
76	5
77	215
78	103
79	803
80	426
81	275
82	156
83	11
85	1
86	1
87	1
88	4
89	7
90	4
91	200
92	41
93	554
94	476
95	477
96	52
97	3
98	0
101	1
102	5
103	12
104	15
105	46
106	18
107	317
108	259
109	28
110	4
111	1
115	15
116	6
117	23
118	4
119	22
120	4
121	381
122	38
123	2
126	2
127	5
128	19
129	9
130	6
131	7
132	10
133	6
134	18
135	34
136	140
137	15
138	6
139	0
144	1
155	1
156	1
157	1
158	2
162	1
164	1
168	6
169	3
170	1
171	1
179	0
180	1
181	6
182	3
183	1
184	2
191	0
192	1
193	0
194	2
195	1
196	1
197	0
204	1
205	3
206	2
207	4
208	3
209	1
211	0
217	0
218	9
219	1
221	0
229	1
230	3
231	10
232	8
233	5
234	2
235	4
236	2
237	5
238	2
239	2
241	1
243	1
245	1
256	1
257	1
258	5
259	1
269	1
270	1
271	1
272	0
274	0
281	1
282	6
283	3
284	4
294	1
295	2
296	1
297	0
305	0
306	2
307	6
308	16
309	5
310	4
311	0
319	1
320	2
321	1
322	1
330	3
331	7
332	35
333	18
334	40
335	8
336	19
337	4
338	4
339	0
340	0
343	1
344	1
345	1
346	1
347	0
348	0
356	2
357	0
358	1
360	1
364	0
366	1
367	0
368	2
369	8
370	19
371	7
372	19
373	5
374	17
375	3
376	6
377	0
378	0
382	0
386	0
388	0
398	0
411	0
412	1
414	1
423	0
425	0
426	0
432	1
436	7
437	6
438	9
440	6
441	2
442	13
443	3
444	6
445	1
446	1
447	1
448	1
449	3
450	2
451	0
452	0
454	1
455	2
458	3
459	2
460	8
461	5
462	32
463	14
464	27
465	9
466	21
467	9
468	36
469	14
470	102
471	27
472	67
473	18
474	19
475	7
476	3
477	3
478	2
480	1
481	0
482	2
483	0
490	0
508	11
509	5
510	42
511	11
512	13
513	3
514	0
544	2
546	7
547	3
548	79
549	19
550	48
551	11
552	10
553	2
