Mass Spectrum: 1,3,2-Dioxaphospholane, 2-cyclohexyl-4,5-dimethyl-
Formula: C10H19O2P
CAS: 74810-62-1
Molecular weight: 202
m/z	intensity
26	10
27	74
28	26
29	95
39	70
40	8
41	171
42	10
43	36
44	5
45	13
47	41
48	2
49	2
50	1
51	5
52	4
53	36
54	32
55	999
56	135
57	10
58	2
59	1
63	0
65	36
66	6
67	43
68	5
69	2
71	7
72	5
73	7
74	0
75	2
76	3
77	7
78	1
79	16
80	12
81	89
82	38
83	75
84	2
85	5
86	10
92	3
93	5
96	0
97	0
99	6
105	1
109	2
111	0
112	4
113	5
114	136
115	8
117	5
118	1
119	752
120	53
121	25
130	1
136	6
137	9
147	5
148	6
149	2
150	0
158	66
159	4
163	0
164	4
165	6
166	2
202	135
203	14
