Mass Spectrum: Propanedioic acid, 2-hexenyl-, dimethyl ester
Formula: C11H18O4
CAS: 74810-84-7
Molecular weight: 214
m/z	intensity
27	270
28	100
29	290
31	30
39	390
40	60
41	600
42	70
43	90
45	60
51	40
52	30
53	200
54	210
55	570
56	40
57	30
59	430
65	100
66	80
67	470
68	100
69	210
70	10
71	80
74	50
77	70
79	150
80	60
81	290
82	410
83	170
84	20
85	30
87	40
91	30
93	160
94	220
95	480
96	40
97	80
98	70
99	40
100	400
101	280
102	10
107	30
108	20
109	30
110	999
111	210
112	70
121	30
122	70
123	100
124	20
125	100
126	20
127	20
132	990
133	240
134	20
139	40
145	130
150	60
151	340
152	40
153	40
154	340
155	110
165	20
182	40
183	60
185	10
214	40
215	10
