Mass Spectrum: Cyclopropanecarboxylic acid, 2,2-dimethyl-3-(1-phenyl-2-propenyl)-, ethyl ester
Formula: C17H22O2
CAS: 74810-40-5
Molecular weight: 258
m/z	intensity
26	26
27	148
28	43
29	304
30	7
31	9
32	2
36	1
37	1
38	4
39	136
40	20
41	184
42	13
43	106
44	17
45	19
46	1
47	3
48	0
49	2
50	14
51	64
52	21
53	68
54	8
55	70
56	6
57	16
58	2
59	39
60	2
61	2
62	6
63	33
64	11
65	88
66	15
67	134
68	14
69	31
70	5
71	18
72	2
73	5
74	5
75	28
76	16
77	108
78	44
79	45
80	10
81	35
82	18
83	43
84	6
85	45
86	6
87	13
88	8
89	30
90	7
91	407
92	45
93	27
95	200
96	24
97	5
98	1
99	4
100	13
101	13
102	39
103	43
104	22
105	69
106	10
107	23
109	5
110	2
111	8
112	4
113	361
114	35
115	508
116	162
117	798
118	93
119	20
120	3
121	3
122	1
123	1
124	1
125	10
126	10
127	64
128	240
129	534
130	999
131	127
132	27
133	14
134	4
135	3
136	1
137	1
138	1
139	14
140	7
141	296
142	86
143	273
144	41
145	26
146	3
147	2
148	1
149	6
150	2
151	4
152	16
153	23
154	28
155	46
156	17
157	53
158	21
159	7
160	2
161	2
162	1
163	1
164	1
165	10
166	4
167	12
168	12
169	231
170	55
171	137
172	21
173	5
174	3
175	1
176	1
177	2
178	3
179	3
180	2
181	4
182	4
183	39
184	358
185	324
186	47
187	6
188	2
189	1
190	1
191	1
192	1
193	0
194	0
195	2
196	1
197	17
198	3
199	19
200	3
201	4
202	5
203	3
205	1
206	5
207	2
209	0
211	2
212	10
213	11
214	2
215	17
216	5
217	0
223	0
229	13
230	3
231	0
234	1
241	1
243	116
244	21
245	2
256	0
258	78
259	13
260	2
