Mass Spectrum: Palladium, bis(.eta.3-2-propenyl)(trimethylphosphine)-
Formula: C9H19PPd
CAS: 74811-11-3
Molecular weight: 264
m/z	intensity
26	48
27	139
28	8
29	16
30	0
31	4
32	5
33	11
34	4
35	5
36	11
37	63
38	95
39	755
40	145
41	399
42	81
43	3
44	64
45	328
46	50
47	100
48	10
49	6
50	4
51	6
52	3
53	9
54	34
55	12
56	49
57	241
58	78
59	642
60	54
61	999
62	22
63	2
65	2
66	1
67	55
68	4
69	4
70	0
71	7
72	1
73	44
74	6
75	179
76	640
77	71
78	4
79	4
80	1
81	6
82	1
91	0
101	0
102	6
103	0
104	78
105	159
106	201
107	6
108	188
109	6
110	83
111	2
113	0
114	1
116	0
117	9
118	5
119	22
120	35
121	38
122	5
123	34
124	2
125	15
127	0
128	0
129	0
130	5
131	14
132	16
133	7
134	11
135	7
136	5
137	3
138	0
139	1
140	1
141	7
142	13
143	73
144	99
145	322
146	446
147	615
148	57
149	533
150	40
151	223
152	15
153	7
154	1
155	5
156	1
157	2
158	1
159	2
160	2
161	3
162	2
163	2
164	2
165	4
166	6
167	6
168	2
169	5
170	1
171	4
172	1
173	3
174	0
175	2
177	2
178	0
179	14
180	32
181	45
182	14
183	41
184	16
185	21
186	82
187	174
188	213
189	14
190	196
191	12
192	84
193	6
207	0
209	0
219	0
221	9
222	18
223	23
224	1
225	20
226	1
227	9
228	0
260	0
262	3
263	6
264	8
265	1
266	6
267	0
268	3
269	0
