Mass Spectrum: DL-Xylitol, 1,3,4-triacetate 2,5-dibenzoate
Formula: C25H26O10
CAS: 74810-28-9
Molecular weight: 486
m/z	intensity
28	3
29	1
39	1
41	1
42	2
43	310
44	7
45	1
50	3
51	18
52	1
53	0
54	0
55	2
56	1
57	1
60	1
61	2
65	0
68	2
69	2
70	0
71	0
73	3
74	1
75	1
76	5
77	112
78	9
79	1
81	3
82	0
85	8
86	2
91	1
92	0
97	1
98	12
99	2
101	0
102	2
103	2
104	3
105	999
106	72
107	4
112	0
113	0
115	26
116	5
121	0
122	4
123	4
127	6
128	1
135	0
139	0
140	10
141	3
144	1
145	1
157	7
158	4
160	0
165	6
166	0
177	19
178	6
179	1
181	0
182	1
187	11
188	1
189	2
190	2
199	2
200	7
201	1
202	7
203	2
207	42
208	5
209	0
219	6
220	16
221	2
232	2
244	1
249	8
250	1
261	2
262	15
263	2
269	1
279	32
280	5
281	1
304	17
305	3
306	0
322	1
324	0
341	2
351	5
352	1
364	1
366	3
367	0
413	4
414	1
426	0
427	0
