Mass Spectrum: Benzene, (3-ethenyl-5,5-dimethylhexyl)-
Formula: C16H24
CAS: 74810-75-6
Molecular weight: 216
m/z	intensity
27	91
28	15
29	181
30	4
31	2
32	3
38	5
39	113
40	16
41	291
42	17
43	252
44	7
50	12
51	44
52	10
53	41
54	36
55	112
56	32
57	793
58	38
62	3
63	13
64	4
65	100
66	14
67	28
68	15
69	73
70	14
71	75
72	3
75	3
76	6
77	60
78	29
79	44
80	5
81	17
82	9
83	23
89	16
90	9
91	662
92	195
93	17
95	8
97	28
98	2
101	2
102	5
103	26
104	999
105	326
106	27
109	6
110	10
111	7
112	3
115	16
116	6
117	49
118	20
119	8
123	2
127	4
128	11
129	16
130	6
131	41
132	9
133	2
141	4
143	3
145	64
146	10
159	10
160	67
161	11
183	2
201	2
216	14
