Mass Spectrum: Bicyclo[2.1.0]pentane-5-carboxylic acid, 1-methyl-, ethyl ester
Formula: C9H14O2
CAS: 74810-55-2
Molecular weight: 154
m/z	intensity
25	1
26	27
27	214
28	26
29	232
30	14
31	9
32	2
37	6
38	21
39	202
40	35
41	178
42	17
43	38
44	4
45	8
46	0
47	1
48	0
49	2
50	25
51	49
52	29
53	208
54	19
55	52
56	2
57	3
58	1
59	1
60	1
61	2
62	4
63	9
64	3
65	50
66	38
67	42
68	12
69	11
70	3
71	2
73	1
74	2
75	3
76	1
77	70
78	15
79	318
80	100
81	999
82	76
83	14
84	2
85	1
86	3
87	0
89	0
91	2
92	0
93	7
94	1
95	4
96	0
97	26
98	41
99	2
100	0
103	0
105	0
107	6
108	10
109	71
110	5
111	29
112	2
113	0
125	23
126	15
127	1
131	0
139	6
140	0
154	1
