Mass Spectrum: Ibuprofen, TMS derivative
Formula: C16H26O2Si
CAS: 74810-89-2
Molecular weight: 278
m/z	intensity
27	12
29	8
39	11
40	2
41	36
42	3
43	50
44	9
45	45
46	3
47	13
51	5
52	2
53	4
55	5
57	14
58	8
59	8
60	2
61	10
63	4
65	9
71	2
73	999
74	90
75	157
76	12
77	23
78	7
79	6
89	9
90	4
91	58
92	6
93	2
102	5
103	15
104	9
105	17
110	6
115	41
116	14
117	141
118	59
119	43
120	4
127	4
128	11
129	9
130	4
131	17
132	2
141	2
143	2
144	1
145	26
146	4
147	4
148	2
160	260
161	129
162	15
163	2
191	13
192	2
193	6
205	17
206	4
207	2
219	4
220	11
221	5
234	96
235	22
236	6
263	133
264	29
265	8
277	3
278	45
279	11
280	3
