Mass Spectrum: .alpha.-D-Mannofuranoside, methyl, cyclic 2,3:5,6-bis(ethylboronate)
Formula: C11H20B2O6
CAS: 74810-68-7
Molecular weight: 270
m/z	intensity
26	13
27	67
28	42
29	110
30	3
31	22
32	2
33	12
36	0
37	1
38	4
39	68
40	19
41	72
42	56
43	175
44	15
45	518
46	11
47	1
48	2
49	0
50	2
51	8
52	9
53	41
54	26
55	60
56	29
57	107
58	20
59	27
60	1
61	72
62	6
63	2
64	1
65	4
66	5
67	14
68	42
69	72
70	79
71	62
72	7
73	16
74	66
75	4
76	3
77	2
78	1
79	5
80	4
81	35
82	22
83	77
84	38
85	51
86	28
87	25
88	1
89	1
90	1
91	2
92	1
93	1
94	3
95	10
96	20
97	45
98	152
99	287
100	18
101	13
102	0
103	0
105	0
106	1
107	2
108	4
109	18
110	238
111	999
112	255
113	170
114	11
115	6
116	3
117	1
118	0
119	0
120	1
121	1
122	3
123	15
124	53
125	49
126	12
127	16
128	3
129	4
130	3
131	0
133	0
134	0
135	2
136	5
137	14
138	6
139	12
140	36
141	157
142	248
143	77
144	6
145	0
148	0
149	1
150	2
151	5
152	4
153	12
154	24
155	13
156	2
157	2
158	4
159	1
162	1
163	2
164	1
165	3
166	2
167	3
168	2
169	2
170	68
171	273
172	30
173	4
174	0
178	0
179	4
180	20
181	41
182	5
183	1
184	0
185	1
186	0
194	0
195	1
196	5
197	5
198	0
199	0
206	0
207	1
208	6
209	16
210	17
211	4
212	0
213	0
214	1
215	0
220	0
221	0
225	0
237	1
238	4
239	6
240	2
241	2
242	0
270	0
