Mass Spectrum: 3-Octanol, 1-bromo-1,1,2,2-tetrafluoro-
Formula: C8H13BrF4O
CAS: 74810-73-4
Molecular weight: 280
m/z	intensity
25	3
26	92
27	750
28	239
29	999
30	41
31	279
32	19
33	20
34	0
35	0
36	1
37	11
38	37
39	462
40	102
41	924
42	387
43	971
44	303
45	101
46	9
47	43
48	4
49	100
50	40
51	115
52	18
53	94
54	35
55	923
56	814
57	321
58	21
59	89
60	18
61	22
62	7
63	27
64	14
65	33
66	5
67	74
69	92
70	12
71	97
72	11
73	54
74	4
75	24
76	6
77	92
78	7
79	16
80	69
81	26
82	17
83	828
84	90
85	15
86	1
87	10
88	4
89	14
90	12
91	65
92	3
93	24
94	3
95	20
96	2
97	11
98	3
99	6
100	91
101	461
102	39
103	29
104	6
105	16
106	4
107	5
108	9
109	19
110	8
111	46
112	7
113	31
114	4
115	6
116	0
117	5
118	0
119	4
120	0
121	12
122	2
123	7
124	3
125	4
126	0
127	12
128	1
129	87
130	1
131	83
133	38
134	6
135	4
137	2
139	4
140	2
141	7
142	2
143	6
144	1
145	2
147	3
148	1
149	0
151	2
153	17
154	3
155	2
157	2
159	0
160	16
161	15
162	14
163	21
164	1
165	0
167	3
168	0
169	1
171	3
173	1
175	1
179	14
181	15
182	0
183	1
185	0
187	4
189	5
191	1
200	0
201	1
202	0
203	1
205	0
207	0
209	0
211	0
213	0
215	0
219	0
221	0
222	0
233	2
234	1
235	2
236	1
247	0
249	0
251	6
253	6
261	0
262	4
263	1
264	4
