Mass Spectrum: Rhodium, [1,2-bis(.eta.2-ethenyl)-4-ethenylcyclohexane]di-.mu.-chlorodi-
Formula: C24H36Cl2Rh2
CAS: 74811-02-2
Molecular weight: 600
m/z	intensity
26	55
27	396
28	66
29	189
30	3
31	5
32	0
35	19
36	133
37	6
38	42
39	540
40	90
41	728
42	43
43	59
44	3
45	2
49	3
50	34
51	123
52	71
53	295
54	368
55	265
56	19
57	14
58	8
59	2
62	8
63	40
64	19
65	188
66	115
67	564
68	69
69	52
70	15
71	11
72	2
73	3
74	4
75	13
76	4
77	451
78	170
79	999
80	380
81	202
82	32
83	20
84	3
87	2
88	1
89	15
90	7
91	796
92	270
93	808
94	280
95	181
96	24
97	7
101	2
102	6
103	32
104	32
105	408
106	269
107	211
108	235
109	40
110	9
111	4
115	34
116	16
117	62
118	25
119	274
120	200
121	96
122	15
123	5
124	1
127	6
128	16
129	14
130	9
131	56
132	25
133	660
134	204
135	45
136	10
137	3
138	0
139	0
141	5
142	1
143	4
144	2
145	27
146	6
147	205
148	31
149	18
150	7
151	2
152	0
154	1
156	0
157	1
158	3
159	9
160	68
161	72
162	256
163	45
164	5
165	5
167	2
168	1
169	1
173	1
174	0
175	4
176	3
177	5
178	11
179	2
183	1
195	0
196	1
199	0
208	0
218	2
219	2
230	0
231	1
232	0
233	1
235	0
257	0
258	1
259	1
261	2
263	3
282	0
308	2
331	1
332	5
333	2
334	10
336	1
356	4
357	4
358	12
359	3
360	7
362	7
363	1
364	5
366	3
370	1
372	3
394	1
395	1
396	6
397	1
398	13
399	3
400	21
401	5
402	25
403	2
404	6
490	2
492	2
494	1
495	0
496	1
498	6
499	0
510	0
514	1
516	2
518	2
520	4
521	0
522	5
524	7
525	2
526	13
527	3
528	5
529	0
562	2
564	2
600	35
601	10
602	25
603	6
604	4
