Mass Spectrum: Cyclopropanepropanoic acid, 3-[1-(methoxycarbonyl)ethenyl]-2,2-dimethyl-, methyl ester, trans-
Formula: C13H20O4
CAS: 74810-52-9
Molecular weight: 240
m/z	intensity
25	2
26	31
27	345
28	105
29	269
30	24
31	69
32	2
33	27
34	0
35	0
36	1
37	11
38	47
39	639
40	101
41	758
42	138
43	334
44	16
45	108
46	8
47	3
48	0
49	3
50	42
51	160
52	86
53	336
54	56
55	417
56	39
57	46
58	12
59	651
60	31
61	23
62	12
63	51
64	15
65	228
66	104
67	260
68	64
69	115
70	14
71	34
72	5
73	35
74	130
75	27
76	12
77	643
78	146
79	806
80	114
81	243
82	53
83	73
84	9
85	53
86	4
87	39
88	29
89	18
90	9
91	696
92	157
93	999
94	187
95	139
96	26
97	46
98	291
99	68
100	25
101	23
102	6
103	40
104	18
105	454
106	464
107	998
108	107
109	103
110	23
111	198
112	24
113	12
114	4
115	14
116	6
117	20
118	7
119	124
120	196
121	468
122	145
123	66
124	27
125	176
126	17
127	9
128	4
129	6
130	19
131	49
132	17
133	256
134	193
135	351
136	35
137	122
138	25
139	20
140	4
141	5
142	2
143	1
144	2
145	3
146	6
147	60
148	530
149	227
150	29
151	78
152	18
153	78
154	13
155	4
156	1
157	2
158	7
159	15
160	3
161	255
162	30
163	10
164	5
165	67
166	37
167	33
168	3
169	0
170	0
172	1
174	1
175	14
176	629
177	278
178	30
179	7
180	137
181	28
182	3
184	1
185	0
190	3
191	6
192	1
193	32
194	3
195	1
197	285
198	32
199	4
203	0
205	0
208	448
209	90
210	10
211	0
225	4
240	5
241	0
