Mass Spectrum: Benzene, 2-methoxy-1-(2-nitroethenyl)-3-(phenylmethoxy)-
Formula: C16H15NO4
CAS: 74810-83-6
Molecular weight: 285
m/z	intensity
65	30
91	999
92	90
162	10
164	10
242	10
253	10
285	30
