Mass Spectrum: Borinic acid, diethyl-, [2-(cyclohexylimino)cyclodecyl]phenylmethyl ester
Formula: C27H44BNO
CAS: 74810-37-0
Molecular weight: 409
m/z	intensity
26	11
27	27
28	49
29	74
30	20
32	0
36	2
37	0
38	1
39	19
40	76
41	591
42	30
43	52
44	7
48	1
49	0
51	2
52	1
53	26
54	41
55	699
56	61
57	44
59	1
62	1
63	1
64	0
65	13
66	4
67	57
68	43
69	194
71	0
72	0
75	0
76	1
77	16
78	10
79	27
80	25
81	61
82	5
83	277
84	18
85	0
86	2
89	7
90	15
91	999
92	100
93	21
94	13
95	24
98	26
99	2
100	1
102	8
103	20
104	256
105	97
106	17
107	10
108	16
109	8
111	1
112	15
113	4
114	2
115	79
116	32
117	385
118	89
119	40
120	15
121	15
122	26
123	10
124	2
125	9
126	4
127	12
128	31
129	50
130	59
131	53
132	19
133	11
134	14
135	12
136	10
137	5
138	18
140	3
141	17
142	14
143	25
144	14
145	17
146	13
147	11
148	10
149	5
150	30
151	4
152	14
153	12
155	8
156	16
157	14
158	17
159	6
160	2
161	3
162	13
163	3
164	50
165	26
166	12
167	6
168	7
169	6
170	22
171	9
172	14
173	13
174	42
175	175
176	30
177	4
178	15
179	71
180	15
181	5
182	7
183	8
184	14
185	8
186	16
188	32
189	5
190	7
191	6
193	25
195	1
196	8
197	4
198	14
199	11
200	22
201	7
202	2
203	1
204	4
205	3
206	21
207	11
208	7
209	2
210	4
211	4
212	15
213	9
214	19
215	8
216	3
217	2
218	3
219	3
220	9
221	23
222	28
223	3
224	9
225	14
226	15
227	10
228	54
229	12
230	4
232	30
233	8
234	400
235	52
236	2
237	2
238	8
239	5
240	58
241	51
242	278
243	41
244	8
246	4
248	32
249	8
250	2
252	10
253	5
254	22
255	6
256	7
258	5
266	17
267	7
268	31
269	11
270	23
271	6
272	1
274	3
276	1
279	1
280	16
281	29
282	100
283	21
284	4
294	6
295	10
296	47
297	40
298	115
299	22
300	3
302	3
304	4
308	3
309	4
310	18
311	11
312	19
313	10
314	1
316	2
318	1
320	5
321	4
322	21
323	39
324	897
325	246
326	64
327	15
328	4
330	2
332	2
338	10
339	9
340	4
350	2
351	8
352	38
353	16
355	2
365	4
366	21
367	9
368	9
369	3
378	2
379	36
380	130
381	40
382	6
406	2
407	8
408	102
409	358
410	109
411	20
412	6
413	2
