Mass Spectrum: [1,2]Dithiolo[1,5-b][1,2]oxathiole-7-SIV, 2,3,4,5-tetraphenyl-
Formula: C29H20OS2
CAS: 74810-21-2
Molecular weight: 448
m/z	intensity
50	21
51	63
55	30
56	25
57	25
64	54
69	48
77	500
78	50
105	999
106	80
121	390
122	35
149	43
165	26
178	46
202	24
221	23
234	22
276	46
277	24
278	45
279	37
308	46
309	37
310	62
311	46
312	26
321	26
342	24
343	67
344	62
345	21
355	24
368	35
371	72
372	22
382	25
383	73
384	64
385	23
398	37
400	22
414	55
415	130
416	33
431	57
432	30
447	25
448	640
449	220
450	90
451	20
