Mass Spectrum: 3-Cyclohexen-1-ol, 2-(1,5-dimethyl-4-hexenyl)-4-methyl-
Formula: C15H26O
CAS: 74810-24-5
Molecular weight: 222
m/z	intensity
39	80
41	550
43	180
53	130
55	310
56	170
57	150
67	260
68	180
69	440
72	310
77	150
79	160
80	180
81	999
82	330
91	160
92	100
93	610
94	160
95	140
105	160
107	180
109	100
110	90
111	380
119	400
120	80
121	390
122	210
133	50
140	80
161	70
189	30
204	230
205	50
222	20
