Mass Spectrum: Spiro[bicyclo[6.1.0]nonane-9,1'-cyclopentane], 3'-methylene-
Formula: C14H22
CAS: 74810-74-5
Molecular weight: 190
m/z	intensity
26	90
27	392
28	104
29	315
30	7
31	14
32	6
34	1
36	1
37	6
38	15
39	424
40	74
41	787
42	72
43	176
44	22
45	134
46	5
47	8
48	1
49	4
50	36
51	98
52	61
53	238
54	146
55	590
56	80
57	94
58	38
59	36
60	3
61	1
62	6
63	34
64	16
65	138
66	65
67	500
68	101
69	204
70	18
71	24
72	8
73	10
74	5
75	11
76	7
77	327
78	154
79	834
80	999
81	370
82	85
83	77
84	11
85	13
87	3
89	12
90	2
91	525
92	158
93	424
94	334
95	146
96	24
97	47
98	9
99	4
100	2
101	306
102	26
103	31
104	18
105	238
106	248
107	298
108	126
109	76
110	18
111	83
112	8
113	6
115	28
116	8
117	48
118	15
119	172
120	89
121	97
122	29
123	13
124	6
125	3
126	2
127	4
128	7
129	8
130	5
131	18
132	8
133	177
134	105
135	68
136	25
137	4
138	1
139	2
141	10
142	7
143	28
144	2
145	7
146	3
147	92
148	29
149	19
150	5
151	1
152	1
155	7
156	1
159	2
160	5
161	46
162	95
163	11
171	1
173	1
175	28
176	7
188	1
189	4
190	126
191	22
192	1
