Mass Spectrum: Zinc, bis[2,2-dimethyl-3-(2-methyl-2-propenyl)cyclopropyl]-, [cis(cis)]-
Formula: C18H30Zn
CAS: 74810-57-4
Molecular weight: 310
m/z	intensity
26	11
27	103
29	141
30	2
36	0
37	1
38	3
39	119
40	27
41	453
42	23
43	384
44	12
48	0
49	0
50	4
51	15
52	7
53	125
54	16
55	272
56	18
57	133
58	5
61	0
62	0
63	3
64	6
65	40
66	17
67	243
68	33
69	117
70	6
71	0
73	1
74	1
75	1
76	0
77	53
78	10
79	117
80	23
81	999
82	77
83	10
84	0
89	0
90	0
91	69
92	10
93	69
94	17
95	145
96	11
97	0
103	2
104	0
105	14
106	3
107	95
108	30
109	16
110	1
112	0
113	1
114	0
115	1
116	1
117	0
118	0
120	0
121	13
122	47
123	943
124	99
125	5
131	4
132	0
133	2
134	0
135	1
145	0
147	0
149	0
185	0
187	180
188	22
189	106
190	28
191	69
192	8
193	2
242	0
310	33
311	6
312	19
313	6
314	13
315	2
316	0
