Mass Spectrum: DL-Ribitol, 1,4-anhydro-, cyclic 2,3-(ethylboronate)
Formula: C7H13BO4
CAS: 74810-31-4
Molecular weight: 172
m/z	intensity
26	35
27	169
28	99
29	283
30	8
31	185
32	3
33	0
36	1
37	4
38	9
39	98
40	25
41	114
42	49
43	999
44	136
45	71
46	1
47	0
49	0
50	2
51	4
52	6
53	29
54	25
55	92
56	113
57	634
58	24
59	10
60	2
61	3
62	1
63	1
64	0
65	1
66	2
67	7
68	16
69	215
70	58
71	16
72	1
73	11
74	6
75	2
77	0
78	0
79	0
80	6
81	7
82	33
83	145
84	97
85	50
86	47
87	81
88	3
89	0
91	0
94	0
95	3
96	11
97	26
98	55
99	132
100	11
101	2
102	0
107	0
108	1
109	7
110	59
111	242
112	97
113	118
114	7
115	1
116	1
117	2
122	0
123	2
124	6
125	8
126	2
127	2
128	3
129	9
130	0
136	0
137	0
138	0
139	3
140	225
141	940
142	158
143	14
144	1
153	1
154	6
155	1
156	0
166	0
171	1
172	5
173	0
