Mass Spectrum: Platinum, bis[(1,2,3-.eta.)-2-butenyl](trimethylphosphine)-
Formula: C11H23PPt
CAS: 74811-09-9
Molecular weight: 381
m/z	intensity
26	232
27	869
28	465
29	436
30	10
31	1
32	1
33	5
34	2
35	2
36	8
37	57
38	88
39	999
40	161
41	842
42	27
43	1
44	29
45	149
46	23
47	47
48	16
49	69
50	222
51	197
52	86
53	452
54	619
55	492
56	360
57	103
58	34
59	278
60	22
61	419
62	10
63	1
65	1
66	1
67	4
68	2
69	2
71	14
72	0
73	18
74	2
75	75
76	256
77	17
78	2
79	3
80	0
81	2
91	3
92	0
93	1
95	1
103	0
105	1
106	0
108	4
109	0
110	0
131	0
195	0
196	0
207	0
208	0
209	0
210	0
216	0
220	2
221	6
222	5
223	3
224	2
225	9
226	10
227	9
228	3
229	4
230	1
231	1
232	1
233	3
234	2
235	2
236	1
237	2
238	23
239	55
240	59
241	45
242	23
243	19
244	6
245	7
246	5
247	8
248	9
249	8
250	5
251	13
252	13
253	20
254	33
255	57
256	45
257	27
258	9
259	7
260	1
261	1
262	1
263	1
264	2
265	5
266	5
267	18
268	14
269	153
270	192
271	392
272	271
273	206
274	17
275	49
276	3
277	3
278	4
279	4
280	2
281	2
282	1
283	1
284	0
285	1
286	0
287	1
288	0
289	2
290	2
291	2
292	2
293	2
294	1
295	1
296	1
297	12
298	13
299	10
300	2
301	4
302	2
303	3
304	5
305	5
306	3
307	3
308	2
309	3
310	2
311	2
312	0
313	0
317	0
318	0
319	1
320	1
321	25
322	27
323	179
324	187
325	416
326	319
327	259
328	22
329	58
330	4
341	0
370	0
371	0
372	1
373	1
374	2
375	1
376	1
377	1
378	3
379	2
380	46
381	51
382	40
383	4
384	10
385	1
