Mass Spectrum: 1,3,2-Dioxaborolane, 2-ethyl-4,5-diphenyl-
Formula: C16H17BO2
CAS: 74810-50-7
Molecular weight: 252
m/z	intensity
26	12
27	26
28	3
29	19
30	0
32	0
36	0
37	2
38	11
39	71
40	16
41	11
42	3
43	1
44	0
45	1
46	0
49	0
50	20
51	79
52	16
53	9
54	1
55	3
56	0
57	1
58	1
59	4
60	0
61	2
62	20
63	89
64	50
65	38
66	4
67	2
68	1
70	1
71	1
72	0
73	1
74	5
75	11
76	25
77	110
78	24
79	27
80	2
81	0
82	4
83	5
84	1
85	1
86	3
87	8
88	22
89	403
90	999
91	268
92	18
93	1
94	1
95	2
96	4
97	7
98	3
99	1
100	1
101	3
102	14
103	12
104	17
105	212
106	19
107	464
108	36
109	2
111	10
112	31
113	2
114	2
115	15
116	60
117	292
118	274
119	26
120	5
121	3
122	1
123	0
124	2
125	16
126	19
127	4
128	5
129	5
130	10
131	24
132	4
133	11
134	1
137	0
138	1
139	6
140	1
141	3
142	1
143	2
144	5
145	76
146	262
147	27
148	2
149	0
150	3
151	9
152	31
153	7
154	3
155	0
157	0
159	1
160	1
161	3
162	0
164	4
165	48
166	15
167	39
168	7
169	1
170	0
171	1
172	2
173	89
174	384
175	60
176	17
177	16
178	66
179	56
180	13
181	3
182	0
183	0
186	0
187	2
189	0
191	1
192	1
193	5
194	2
195	29
196	44
197	7
198	0
203	1
204	2
205	2
206	0
207	0
211	0
220	1
221	2
222	4
223	8
224	1
237	1
247	0
248	0
249	3
250	33
251	278
252	671
253	115
254	12
255	1
