Mass Spectrum: 4-Octanol, 1-bromo-1,1,2,2-tetrafluoro-
Formula: C8H13BrF4O
CAS: 74825-24-4
Molecular weight: 280
m/z	intensity
25	2
26	51
27	523
28	109
29	716
30	30
31	175
32	0
33	12
36	1
37	8
38	18
39	286
40	44
41	999
42	587
43	732
44	258
45	163
46	18
47	22
49	98
50	21
51	115
52	9
53	47
54	24
55	292
56	176
57	352
58	68
59	42
60	14
61	13
62	3
63	9
64	67
65	52
66	6
67	35
68	5
69	860
70	44
71	18
72	5
73	37
74	7
75	31
76	16
77	56
78	3
79	12
80	5
81	10
82	3
83	29
84	4
85	16
87	458
88	26
89	17
90	9
91	40
92	2
93	131
94	11
95	404
96	34
97	10
99	4
100	21
101	5
102	3
103	14
104	6
105	13
107	11
108	4
109	9
110	5
111	39
112	6
113	46
114	4
115	29
117	2
119	5
120	2
121	8
122	3
123	35
124	8
125	7
126	3
127	6
129	86
131	80
132	2
133	10
134	2
135	2
136	0
137	4
139	3
140	3
141	2
143	16
144	2
145	6
151	2
153	7
155	67
156	4
157	69
158	2
160	3
161	1
162	4
163	4
167	1
169	2
171	1
173	2
175	76
176	3
177	66
178	2
179	3
181	3
183	9
185	9
187	4
189	1
193	3
195	4
200	1
202	2
203	90
204	4
205	78
206	3
207	2
222	6
223	241
224	14
225	244
226	8
234	4
235	2
236	5
238	1
261	2
262	43
263	6
264	36
265	3
