Mass Spectrum: 2-Bromo-3-choromethyl-6-phenyl-thiazolo(3,2-b)-1,2,4-triazole
Formula: C11H7BrClN3S
CAS: 74829-42-8
Molecular weight: 327
m/z	intensity
44	279
45	110
50	150
51	215
70	450
76	443
77	507
103	999
104	170
123	107
125	109
143	325
144	228
146	493
147	497
149	149
151	147
187	157
212	138
213	338
248	138
292	638
294	633
327	647
329	804
331	276
