Mass Spectrum: .beta.-L-Gulofuranose, cyclic 2,3:5,6-bis(ethylboronate) 1-(diethylboronate)
Formula: C14H27B3O6
CAS: 74841-63-7
Molecular weight: 324
m/z	intensity
27	25
28	24
29	72
30	1
31	22
32	0
36	0
37	0
38	1
39	22
40	16
41	69
42	37
43	139
44	19
45	26
46	0
47	2
49	0
50	1
51	2
52	4
53	19
54	21
55	55
56	78
57	166
58	8
59	16
60	42
61	2
62	1
63	0
65	2
66	4
67	11
68	28
69	63
70	83
71	71
72	11
73	44
74	2
75	3
76	1
77	1
78	2
79	5
80	2
81	42
82	23
83	83
84	27
85	64
86	10
87	23
88	1
89	0
91	1
92	0
93	1
94	3
95	8
96	21
97	53
98	299
99	846
100	58
101	22
102	2
103	3
104	0
105	0
106	0
107	1
108	4
109	19
110	261
111	999
112	97
113	44
114	8
115	8
116	1
117	0
118	0
120	0
121	1
122	3
123	15
124	62
125	63
126	29
127	95
128	115
129	119
130	8
131	1
132	0
133	0
134	1
135	2
136	25
137	83
138	30
139	78
140	70
141	145
142	13
143	4
144	0
145	0
148	0
149	1
150	3
151	7
152	11
153	36
154	26
155	13
156	24
157	97
158	9
159	1
160	0
161	0
162	0
163	2
164	10
165	30
166	10
167	12
168	3
169	7
170	1
171	3
172	0
177	0
178	2
179	4
180	11
181	22
182	14
183	23
184	3
185	1
191	0
192	1
193	2
194	4
195	9
196	18
197	30
198	3
199	1
200	0
202	0
203	1
204	0
206	1
207	4
208	20
209	42
210	12
211	4
212	2
213	3
214	0
219	3
220	14
221	31
222	4
223	1
224	2
225	6
226	2
227	2
234	0
236	0
237	5
238	34
239	67
240	7
241	1
248	1
249	0
252	0
253	0
264	0
265	0
276	0
277	0
281	0
293	3
294	13
295	18
296	2
