Mass Spectrum: 1,3,2-Dioxaborolane-4,5-dimethanol, 2-ethyl-, diacetate, (4S-trans)-
Formula: C10H17BO6
CAS: 74841-61-5
Molecular weight: 244
m/z	intensity
24	0
25	0
26	5
27	19
28	42
29	38
30	2
31	4
36	2
37	0
38	1
39	9
40	4
41	11
42	28
43	999
44	24
45	9
50	0
51	0
52	1
53	3
54	4
55	13
56	8
57	25
58	1
59	0
60	1
61	5
62	1
63	0
67	0
68	2
69	12
70	14
71	2
72	1
73	31
74	2
75	0
81	3
82	4
83	16
84	7
85	2
86	6
87	6
95	0
96	2
97	3
98	13
99	35
100	2
101	0
103	15
104	0
106	0
107	0
108	1
109	4
110	125
111	480
112	39
113	24
114	1
115	0
117	0
122	0
123	37
124	148
125	17
126	2
127	3
128	0
129	2
140	0
141	3
142	2
143	0
145	0
153	0
154	0
155	1
159	0
170	5
171	23
172	2
173	1
215	1
