Mass Spectrum: Thiophene, 2-(ethenylthio)-
Formula: C6H6S2
CAS: 74849-40-4
Molecular weight: 142
m/z	intensity
24	4
25	34
26	225
27	571
33	20
34	3
36	11
37	102
38	212
39	610
41	3
42	2
44	31
45	924
46	32
47	43
48	5
49	19
50	46
51	45
52	18
53	63
54	5
56	22
57	234
58	373
59	113
60	21
61	9
62	7
63	14
64	37
65	92
66	93
67	5
68	25
69	297
70	95
71	999
72	98
73	57
74	1
75	2
76	21
77	24
78	214
79	16
80	6
81	78
82	119
83	33
84	69
85	32
86	4
88	19
89	9
90	16
92	3
93	3
95	11
96	68
97	952
98	97
99	45
100	5
101	7
102	4
103	7
105	1
108	17
109	151
110	42
111	10
112	5
114	17
115	142
116	150
117	22
118	12
119	2
127	40
128	5
129	3
140	6
141	393
142	951
143	114
144	81
145	8
146	1
