Mass Spectrum: Silane, ethylmethyl[[5-methyl-2-(1-methylethyl)cyclohexyl]oxy]-2-propenyl-, (1.alpha.,2.beta.,5.alpha.)-
Formula: C16H32OSi
CAS: 74841-60-4
Molecular weight: 268
m/z	intensity
26	6
27	5
28	3
29	6
31	0
35	1
36	1
37	0
38	0
39	4
40	1
41	28
42	4
43	24
44	2
45	18
46	1
47	3
48	1
49	0
50	0
51	0
52	0
53	3
54	1
55	34
56	3
57	10
58	2
59	9
60	13
61	228
62	14
63	8
64	0
65	0
66	1
67	13
68	2
69	25
70	3
71	8
72	1
73	11
74	4
75	16
76	1
77	6
78	1
79	3
80	2
81	135
82	12
83	15
84	3
85	61
86	6
87	20
88	7
89	999
90	81
91	37
92	2
93	6
94	3
95	46
96	5
97	4
98	0
99	5
100	5
101	62
102	6
103	5
104	0
105	0
107	1
108	0
109	4
110	0
111	3
112	0
113	15
114	1
115	16
116	1
117	6
118	1
119	1
121	3
122	0
123	5
124	0
125	1
126	0
127	3
128	1
129	2
130	0
131	3
132	0
133	0
134	0
135	1
136	2
137	134
138	17
139	1
141	4
142	1
143	3
144	0
145	0
147	0
151	0
153	0
154	0
155	4
156	1
157	0
159	2
165	0
167	0
169	1
170	0
171	1
173	0
177	0
179	0
181	0
183	6
184	1
185	1
197	3
198	1
199	0
207	0
209	0
211	1
212	0
215	1
216	0
224	0
225	3
226	5
227	313
228	58
229	16
230	2
239	11
240	1
241	1
253	4
254	1
255	1
257	0
267	0
268	4
269	1
