Mass Spectrum: Bicyclo[3.1.1]hept-2-ene, 6,6-dimethyl-2-[2-(phenylmethoxy)ethyl]-, (1S)-
Formula: C18H24O
CAS: 74851-17-5
Molecular weight: 256
m/z	intensity
15	1
18	1
26	1
27	29
28	11
29	21
30	1
31	2
32	2
37	1
38	3
39	45
40	7
41	102
42	5
43	71
44	3
45	2
50	8
51	22
52	9
53	31
54	4
55	56
56	4
57	10
58	1
59	1
61	1
62	3
63	10
64	5
65	75
66	11
67	33
68	7
69	74
70	7
71	6
73	1
74	2
75	2
76	2
77	67
78	24
79	108
80	24
81	44
82	11
83	9
84	1
85	3
86	1
88	1
89	12
90	8
91	999
92	122
93	103
94	30
95	20
96	7
97	6
98	1
99	1
102	1
103	11
104	9
105	187
106	41
107	200
108	33
109	19
110	2
111	3
112	1
113	1
115	6
116	4
117	19
118	6
119	74
120	16
121	81
122	27
123	9
124	3
125	2
127	1
128	3
129	6
130	3
131	9
132	6
133	46
134	9
135	54
136	8
137	3
138	1
139	1
141	2
142	2
143	3
144	2
145	4
146	5
147	58
148	22
149	6
150	101
151	15
152	4
153	1
154	1
155	2
156	2
157	1
159	3
160	1
162	1
163	1
164	4
165	102
166	13
167	3
169	2
170	1
171	1
172	3
173	6
174	1
178	1
179	2
180	1
181	1
182	7
183	3
185	2
186	1
187	1
194	1
195	36
196	7
197	2
200	1
211	2
212	2
213	2
214	1
225	1
226	1
238	1
256	5
