Mass Spectrum: 2-Azetidinone, 3,3-dimethyl-
Formula: C5H9NO
CAS: 7486-91-1
Molecular weight: 99
m/z	intensity
14	18
15	25
16	3
17	23
18	105
26	38
27	59
28	149
29	53
30	47
31	3
32	70
37	4
38	7
39	105
40	195
41	462
42	612
43	51
44	11
45	8
51	6
52	14
53	24
54	24
55	303
56	999
57	38
58	6
59	7
67	5
68	3
69	13
70	201
71	10
73	6
82	2
83	3
84	7
98	3
99	3
100	7
