Mass Spectrum: 1,1-Di(prop-2-enyl)-1-silacyclobutane
Formula: C9H16Si
CAS: 74861-47-5
Molecular weight: 152
m/z	intensity
53	60
54	40
55	310
56	35
57	30
58	15
67	80
68	45
69	305
70	50
71	45
81	70
82	85
83	765
84	98
85	15
95	50
96	75
109	68
110	98
111	999
112	155
113	35
124	260
125	30
152	80
153	12
154	3
