Mass Spectrum: Dimethoxyamine
Formula: C2H7NO2
CAS: 7487-32-3
Molecular weight: 77
m/z	intensity
12	10
13	20
14	50
15	350
16	120
17	45
18	180
19	20
25	10
26	60
27	210
28	360
29	580
30	570
31	999
32	580
33	30
39	15
40	10
41	60
42	45
43	65
44	125
45	150
46	190
47	15
48	10
49	40
50	20
51	20
52	10
55	10
56	20
57	90
58	25
59	110
60	30
61	25
62	160
63	20
71	10
72	20
74	10
75	10
77	54
78	1
