Mass Spectrum: 1-Cyclohexyl-3-ethoxy-butan-2-one
Formula: C12H22O2
CAS: 74897-69-1
Molecular weight: 198
m/z	intensity
26	3
27	48
28	22
29	82
30	2
31	2
36	1
37	1
38	1
39	41
40	8
41	99
42	14
43	36
44	11
45	615
46	17
47	1
50	1
51	4
52	2
53	23
54	29
55	157
56	16
57	18
58	1
59	2
60	12
61	7
63	1
65	4
66	3
67	27
68	9
69	12
70	5
71	4
72	12
73	999
74	57
75	3
77	5
78	1
79	7
80	4
81	19
82	15
83	42
84	4
85	2
87	2
91	2
92	1
93	2
94	1
95	5
96	1
97	69
99	7
100	1
108	1
109	2
110	1
111	2
112	1
113	1
115	1
123	1
124	1
125	22
126	3
127	1
135	1
136	1
137	1
138	1
140	1
142	1
149	1
151	2
152	1
154	30
155	4
199	2
