Mass Spectrum: 3-Ethoxy-1-(2-phenyl-cyclohexyl)-butan-2-one
Formula: C18H26O2
CAS: 74897-79-3
Molecular weight: 274
m/z	intensity
27	15
28	6
29	32
39	14
41	31
42	3
43	15
44	7
45	478
46	5
50	2
51	4
52	2
53	8
54	4
55	20
56	4
57	8
63	2
65	14
66	2
67	12
68	3
69	10
70	2
71	4
72	5
73	999
74	47
75	5
76	4
77	18
78	16
79	15
80	3
81	22
82	3
83	3
85	2
89	5
90	2
91	241
92	23
93	4
95	10
96	2
97	3
98	2
99	2
102	3
103	15
104	47
105	79
106	8
107	2
109	3
115	40
116	14
117	47
118	9
127	4
128	12
129	28
130	24
131	14
132	3
133	2
139	4
141	20
142	4
143	13
144	2
145	3
155	3
157	52
158	338
159	59
160	4
167	4
169	2
171	4
172	2
173	2
174	2
181	3
182	4
183	29
184	5
185	2
186	2
200	4
201	192
202	29
203	3
256	35
257	6
274	7
275	1
