Mass Spectrum: 1,2,3,4,5,6-Hexa-O-benzoyl-L-xylo-hex-1-enitol
Formula: C48H36O12
CAS: 74894-95-4
Molecular weight: 804
m/z	intensity
105	999
122	165
269	30
334	500
335	120
403	320
404	570
415	695
416	710
439	460
457	470
474	180
537	140
579	515
