Mass Spectrum: 1H-Indene, 1,2-dichloro-2,3-dihydro-
Formula: C9H8Cl2
CAS: 74925-48-7
Molecular weight: 186
m/z	intensity
25	2
26	5
27	19
30	0
33	0
34	0
35	15
36	82
37	19
38	46
39	77
40	4
41	6
42	0
43	4
44	0
45	0
46	0
47	1
48	1
49	4
50	44
51	37
52	9
53	1
54	0
55	8
56	11
57	162
58	5
60	2
61	19
62	56
63	118
64	14
65	37
66	1
67	1
68	0
69	0
70	1
71	0
72	1
73	11
74	28
75	73
76	27
77	6
78	1
79	1
82	1
83	0
84	2
85	9
86	20
87	28
88	22
89	107
90	12
91	2
92	1
93	1
94	1
95	0
96	1
97	5
98	2
99	6
100	2
101	2
102	2
103	1
104	0
106	0
107	0
108	0
109	2
110	4
111	1
113	33
114	44
115	999
116	485
117	47
118	3
119	1
120	1
121	0
122	1
123	2
125	3
127	2
128	0
130	0
131	0
132	0
133	0
134	1
135	2
136	1
137	1
138	0
139	1
141	0
142	0
143	0
144	1
147	0
148	2
149	16
150	21
151	772
152	89
153	262
154	21
155	0
156	1
160	0
161	1
162	1
165	1
166	0
167	0
168	1
169	1
171	1
174	0
179	0
181	1
184	0
185	1
186	171
187	19
188	115
189	11
190	19
191	2
