Mass Spectrum: Pyridine-3-carbonitrile, 1,4,5,6-tetrahydro-
Formula: C6H8N2
CAS: 7492-87-7
Molecular weight: 108
m/z	intensity
26	32
27	106
28	270
29	42
30	28
37	13
38	23
39	74
40	22
41	74
42	30
43	17
49	5
50	28
51	73
52	147
53	312
54	116
55	41
56	42
57	14
63	6
64	14
65	13
66	51
67	61
68	377
69	21
71	4
75	9
76	15
77	12
78	62
79	86
80	351
81	157
82	39
83	5
90	3
91	3
92	32
93	166
94	11
103	3
104	5
105	74
106	16
107	999
108	820
109	60
110	4
