Mass Spectrum: Benzene, [2-(1-propoxyethoxy)ethyl]-
Formula: C13H20O2
CAS: 7493-57-4
Molecular weight: 208
m/z	intensity
23	58
27	29
31	18
39	8
41	32
43	495
44	41
45	999
46	38
58	62
59	7
60	8
61	33
65	9
77	52
78	78
79	108
87	653
88	69
89	19
91	242
92	48
102	12
103	128
104	293
105	542
106	158
117	30
118	33
149	69
