Mass Spectrum: Phosphoramide, N-cyclohexyl-, dibenzyl(ester)
Formula: C20H26NO3P
CAS: 7494-75-9
Molecular weight: 359
m/z	intensity
41	23
42	6
43	13
44	2
47	3
48	0
49	12
50	2
51	13
52	3
53	4
54	8
55	30
56	17
57	1
62	2
63	12
64	0
65	78
66	5
67	5
68	5
69	6
70	2
74	1
75	1
77	24
78	6
79	36
80	7
81	13
82	6
83	7
84	11
86	6
88	2
89	22
91	999
92	82
93	5
94	2
96	4
98	49
100	5
101	7
102	1
104	4
105	17
107	132
108	11
110	22
114	0
115	5
116	0
117	3
118	10
119	8
120	2
121	0
122	1
124	3
128	13
129	17
130	4
131	0
132	8
133	0
134	1
136	43
137	0
138	2
141	2
142	0
143	5
144	13
145	5
146	6
148	2
150	1
152	2
153	1
155	1
156	3
158	2
159	1
160	3
162	3
164	2
165	3
166	2
167	2
168	1
169	3
170	0
171	129
172	18
173	1
176	23
177	2
178	5
179	4
180	17
181	54
182	7
183	3
184	0
186	26
187	2
188	12
189	0
190	4
194	2
197	1
198	2
200	6
212	6
213	1
214	1
224	4
225	1
226	3
238	0
261	0
266	3
267	1
268	429
269	104
270	7
271	0
276	0
278	3
280	0
281	0
291	0
315	2
316	147
317	30
318	4
330	4
331	0
335	3
344	1
345	0
358	1
359	17
360	33
361	7
362	0
363	3
