Mass Spectrum: Phosphinous amide, P,P-diphenyl-N-(1-phenylethyl)-N-(phenylmethyl)-, (S)-
Formula: C27H26NP
CAS: 74952-81-1
Molecular weight: 395
m/z	intensity
105	999
108	260
109	230
183	630
185	650
196	830
209	550
211	70
214	410
262	360
290	170
395	90
