Mass Spectrum: Pyrimidine-2,4(1H,3H)-dione, 6-benzoyl-5-hydroxy-
Formula: C11H8N2O4
CAS: 74959-96-9
Molecular weight: 232
m/z	intensity
34	4
37	5
38	23
39	63
40	121
41	31
42	54
43	106
44	255
45	29
50	148
51	320
53	78
54	36
55	130
56	14
57	13
59	1
60	1
61	3
62	18
63	35
64	10
65	24
68	14
69	12
70	10
71	108
72	14
73	29
74	50
75	36
76	96
77	766
78	73
79	18
80	8
82	12
83	129
84	7
85	18
86	4
87	6
88	10
89	47
90	14
91	35
92	6
93	2
94	5
97	1
98	5
99	43
100	6
101	3
102	14
103	20
105	999
106	82
107	5
109	77
110	5
111	4
113	5
114	3
115	9
116	16
117	32
118	28
119	8
120	2
121	5
122	4
127	254
128	23
129	8
130	4
131	11
132	32
133	69
134	25
137	1
139	1
141	31
142	3
143	1
144	6
145	51
146	55
147	5
149	22
155	1
157	1
158	14
160	39
161	38
162	2
170	6
171	7
172	2
173	6
174	4
175	1
180	2
185	2
186	1
188	197
189	35
204	3
215	2
230	1
232	239
233	24
