Mass Spectrum: N,N-Bis(3,5-di-ert-tbutyl-4-oxybenzyl)-2,2,6,6-tetramethyl-4-piperidylamine
Formula: C39H64N2O2
CAS: 74970-87-9
Molecular weight: 592
m/z	intensity
35	3
36	8
37	2
38	9
39	57
41	280
42	244
43	181
44	40
45	20
46	1
47	4
48	1
49	1
51	30
52	10
53	38
55	272
56	114
57	489
58	880
59	35
60	11
62	1
63	11
64	13
65	35
67	86
68	23
69	139
70	73
71	133
72	17
73	8
74	2
75	3
76	7
77	63
78	21
79	55
80	33
81	75
82	67
83	127
84	145
85	74
86	5
87	5
88	2
89	6
91	128
92	16
93	41
94	20
95	60
96	47
98	999
99	123
100	8
101	3
102	7
103	20
104	9
105	99
106	17
107	59
108	18
109	40
110	37
111	44
112	77
113	37
115	54
116	21
117	41
118	10
119	108
120	23
121	108
122	18
123	32
124	308
125	51
126	16
127	25
128	57
129	59
130	27
131	46
132	13
133	85
134	41
135	36
136	7
137	11
138	17
139	30
140	168
141	93
142	23
143	46
144	17
145	79
146	22
147	87
148	18
149	43
150	6
151	7
152	6
153	20
154	8
155	178
156	29
157	55
158	16
159	33
160	21
161	248
162	48
163	177
164	40
165	5
166	2
167	6
168	3
169	15
170	11
171	13
172	24
173	30
174	11
175	88
176	30
177	16
178	34
179	12
180	4
181	2
183	5
184	3
185	10
186	4
187	31
188	19
189	57
190	19
191	11
192	2
193	1
197	1
201	5
202	9
203	237
204	49
205	24
206	5
207	2
212	2
216	4
217	32
218	81
219	704
220	119
221	10
230	2
231	1
232	6
233	9
234	203
235	32
236	1
244	1
246	5
247	4
248	2
259	2
260	25
261	12
262	2
273	2
274	12
275	4
300	2
301	2
302	2
316	35
317	10
318	1
357	7
358	1
359	3
373	486
374	119
375	13
452	10
453	2
577	1
