Mass Spectrum: Methanone, 1,2,3,4-cyclobutanetetrayltetrakis[phenyl-, (1.alpha.,2.alpha.,3.alpha.,4.beta.)-
Formula: C32H24O4
CAS: 74978-29-3
Molecular weight: 472
m/z	intensity
17	2
18	6
26	3
27	6
28	15
32	2
39	5
50	9
51	59
52	7
53	3
73	9
74	2
75	5
76	11
77	430
78	46
79	5
91	6
92	2
102	3
103	8
104	7
105	999
106	125
107	9
115	5
119	3
127	4
128	10
129	4
130	2
131	5
147	3
157	10
158	1
159	3
165	1
167	1
178	1
181	1
189	1
191	6
192	1
202	1
203	1
204	1
205	2
206	1
207	2
208	2
209	2
215	2
216	1
217	7
218	2
219	2
220	5
221	2
223	2
233	2
234	1
235	2
236	9
237	13
238	3
244	1
245	2
246	7
247	2
248	4
261	1
262	5
263	1
273	1
321	1
322	1
333	3
334	1
349	145
350	58
351	13
352	4
353	14
354	4
367	120
368	40
369	7
395	2
454	10
455	4
456	1
471	2
472	4
473	2
