Mass Spectrum: Propanoic acid, 3-phenoxy-, methyl ester
Formula: C10H12O3
CAS: 7497-89-4
Molecular weight: 180
m/z	intensity
25	4
26	41
27	161
28	59
29	58
30	11
31	32
33	2
37	15
38	49
39	286
40	37
41	47
42	21
43	29
44	11
45	145
46	3
47	3
49	2
50	48
51	143
52	11
53	11
54	2
55	176
56	8
57	2
58	1
59	427
60	11
61	10
62	18
63	58
64	27
65	281
66	122
67	8
68	3
69	1
71	6
73	1
74	12
75	9
76	13
77	258
78	98
79	78
80	6
81	2
85	0
87	999
88	41
89	7
90	3
91	39
92	13
93	55
94	488
95	39
96	2
101	2
103	7
105	2
106	2
107	173
108	34
109	5
119	8
120	20
121	31
122	3
123	1
131	3
137	4
147	2
148	20
149	160
150	18
151	2
165	1
180	448
181	45
182	5
