Mass Spectrum: 2,5-Cyclohexadien-1-one, 4-[2,6-bis(1,1-dimethylethyl)-4-oxo-2,5-cyclohexadien-1-ylidene]-2,6-bis(1,1-dimethylethyl)-
Formula: C28H40O2
CAS: 74978-25-9
Molecular weight: 408
m/z	intensity
41	606
42	90
43	227
44	18
55	242
56	257
57	999
68	75
70	136
72	106
77	60
78	60
81	75
83	90
95	75
97	106
279	75
280	106
281	75
295	75
309	106
337	75
351	272
352	166
353	75
366	196
393	196
408	681
409	227
410	166
411	45
