Mass Spectrum: Methanone, (2-amino-5-chlorophenyl)-1H-pyrrol-2-yl-
Formula: C11H9ClN2O
CAS: 74978-28-2
Molecular weight: 220
m/z	intensity
27	4
28	999
29	110
37	3
38	16
39	86
40	64
41	36
43	31
44	12
50	7
51	13
52	17
54	9
55	34
56	10
57	22
60	2
61	1
62	13
63	41
64	21
65	17
66	81
67	113
68	7
69	10
71	11
73	11
74	4
75	16
76	19
77	7
78	27
81	21
82	2
83	15
89	1
90	34
91	18
93	11
94	160
95	4
98	2
99	47
101	5
102	8
110	11
111	4
112	17
113	2
126	58
127	38
128	44
129	16
130	19
140	11
149	55
150	3
153	353
154	166
155	137
156	85
157	31
164	40
166	13
167	12
168	13
181	2
183	2
184	49
185	16
190	4
191	86
192	126
193	48
194	37
203	179
204	37
205	61
206	9
218	6
219	397
220	999
221	259
222	324
223	33
