Mass Spectrum: Butanoic acid, 2-(aminocarbonyl)-3-methyl-2-(1-methylethyl)-
Formula: C9H17NO3
CAS: 7499-15-2
Molecular weight: 187
m/z	intensity
12	1
15	9
16	10
17	18
18	153
19	1
22	3
26	5
27	159
28	44
29	91
30	9
31	9
32	2
37	4
38	11
39	173
40	30
41	405
42	49
43	467
44	456
45	41
46	5
47	3
50	6
51	15
52	10
53	61
54	17
55	311
56	67
57	144
58	61
59	95
60	4
62	7
63	4
64	4
65	14
66	16
67	75
68	626
69	215
70	20
71	16
72	9
73	22
74	1
77	9
78	2
79	13
80	11
81	47
82	41
83	668
84	93
85	30
86	352
87	70
88	4
91	8
92	2
93	9
94	9
95	43
96	6
97	31
98	15
99	166
100	106
101	296
102	29
103	2
105	1
106	2
107	2
108	65
109	122
110	37
111	102
112	422
113	260
114	15
115	2
117	3
122	1
123	13
124	5
125	30
126	235
127	382
128	311
129	415
130	999
131	60
132	8
135	1
140	1
141	13
142	76
143	88
144	192
145	661
146	48
147	5
149	1
154	32
155	7
169	6
170	21
171	4
172	10
173	1
187	1
188	43
189	4
