Mass Spectrum: Acetaldehyde
Formula: C2H4O
CAS: 75-07-0
Molecular weight: 44
m/z	intensity
12	9
13	29
14	108
15	364
16	56
17	3
18	10
19	1
21	1
24	7
25	23
26	54
27	35
28	32
29	999
30	11
31	3
40	10
41	50
42	127
43	474
44	825
45	27
