Mass Spectrum: Ethene, chloro-
Formula: C2H3Cl
CAS: 75-01-4
Molecular weight: 62
m/z	intensity
25	137
26	340
27	999
28	23
29	0
35	87
36	19
37	28
38	6
47	42
48	17
49	14
50	6
51	0
52	0
59	14
60	46
61	68
62	766
63	38
64	242
65	5
