Mass Spectrum: Acetonitrile
Formula: C2H3N
CAS: 75-05-8
Molecular weight: 41
m/z	intensity
12	14
13	9
14	54
15	10
24	7
25	12
26	15
27	9
28	21
38	92
39	176
40	503
41	999
42	26
