Mass Spectrum: Methylene chloride
Formula: CH2Cl2
CAS: 75-09-2
Molecular weight: 84
m/z	intensity
12	5
13	11
14	13
15	1
18	1
24	2
28	2
29	3
31	5
32	3
35	43
36	23
37	13
38	8
41	36
42	23
43	4
47	136
48	79
49	999
50	34
51	311
52	4
70	2
72	1
82	6
83	21
84	654
85	20
86	428
87	7
88	68
