Mass Spectrum: Ethylamine
Formula: C2H7N
CAS: 75-04-7
Molecular weight: 45
m/z	intensity
12	10
13	16
14	45
15	103
16	15
18	34
19	1
21	2
24	3
25	10
26	53
27	134
28	317
29	75
30	999
31	22
32	2
38	15
39	21
40	46
41	48
42	92
43	32
44	201
45	189
46	5
