Mass Spectrum: Ethyl Chloride
Formula: C2H5Cl
CAS: 75-00-3
Molecular weight: 64
m/z	intensity
15	11
24	7
25	44
26	205
27	604
28	830
29	721
30	16
35	18
36	13
37	8
38	4
47	19
48	29
49	266
50	12
51	83
59	10
60	28
61	30
62	33
63	59
64	999
65	40
66	320
67	8
