Mass Spectrum: Formamide
Formula: CH3NO
CAS: 75-12-7
Molecular weight: 45
m/z	intensity
12	3
13	2
14	5
15	10
16	121
17	325
18	67
26	12
27	74
28	62
29	342
30	6
42	18
43	108
44	248
45	999
46	16
47	2
