Mass Spectrum: Difluoromethane
Formula: CH2F2
CAS: 75-10-5
Molecular weight: 52
m/z	intensity
12	24
13	62
14	12
19	22
20	4
31	277
32	109
33	999
34	11
50	34
51	956
52	101
53	1
