Mass Spectrum: Carbon disulfide
Formula: CS2
CAS: 75-15-0
Molecular weight: 76
m/z	intensity
12	19
16	0
32	142
33	1
34	8
38	47
39	3
44	163
45	3
46	6
76	999
77	28
78	75
79	1
80	2
