Mass Spectrum: Cyclopropane
Formula: C3H6
CAS: 75-19-4
Molecular weight: 42
m/z	intensity
2	2
12	10
13	19
14	60
15	54
16	2
19	23
20	19
21	1
24	3
25	18
26	127
27	350
28	25
29	1
36	15
37	99
38	144
39	672
40	314
41	887
42	999
43	33
44	1
