Mass Spectrum: Ethylene oxide
Formula: C2H4O
CAS: 75-21-8
Molecular weight: 44
m/z	intensity
12	38
13	79
14	259
15	652
16	83
17	4
18	2
24	14
25	48
26	139
27	43
28	65
29	999
30	20
31	11
38	1
39	3
40	5
41	18
42	119
43	156
44	652
45	21
46	5
