Mass Spectrum: Isobutane
Formula: C4H10
CAS: 75-28-5
Molecular weight: 58
m/z	intensity
12	1
13	2
14	10
15	68
16	2
19	1
20	1
25	1
26	22
27	278
28	29
29	62
30	1
36	1
37	11
38	26
39	173
40	27
41	384
42	323
43	999
44	33
45	1
49	2
50	8
51	7
52	2
53	6
54	1
55	5
56	4
57	31
58	26
59	1
