Mass Spectrum: Ethane, 1,1-difluoro-
Formula: C2H4F2
CAS: 75-37-6
Molecular weight: 66
m/z	intensity
2	4
12	13
13	22
14	31
15	63
16	2
19	6
20	4
21	1
24	8
25	33
26	73
27	112
28	13
29	1
31	61
32	16
33	19
34	1
43	4
44	44
45	161
46	59
47	202
48	4
50	6
51	999
52	11
62	1
63	15
64	40
65	452
66	13
67	1
