Mass Spectrum: 2-Propanamine
Formula: C3H9N
CAS: 75-31-0
Molecular weight: 59
m/z	intensity
14	2
15	16
16	1
17	1
18	58
25	1
26	8
27	35
28	40
29	8
30	23
31	1
37	5
38	14
39	56
40	33
41	110
42	165
43	73
44	999
45	32
51	3
52	6
54	4
56	6
57	4
58	83
59	27
60	2
