Mass Spectrum: Ethene, 1,1-difluoro-
Formula: C2H2F2
CAS: 75-38-7
Molecular weight: 64
m/z	intensity
12	55
13	51
14	217
15	2
19	9
24	30
25	45
26	64
27	1
31	509
32	30
33	420
34	5
43	31
44	386
45	669
46	14
50	35
51	14
52	1
62	16
63	142
64	999
65	22
