Mass Spectrum: Fluoroform
Formula: CHF3
CAS: 75-46-7
Molecular weight: 70
m/z	intensity
12	4
13	2
19	7
20	1
31	240
32	23
39	1
50	121
51	629
52	7
69	999
70	11
