Mass Spectrum: Propylene oxide
Formula: C3H6O
CAS: 75-56-9
Molecular weight: 58
m/z	intensity
12	2
13	7
14	29
15	107
16	2
17	2
18	1
24	2
25	16
26	276
27	497
28	999
29	360
30	55
31	315
32	6
36	3
37	18
38	25
39	61
40	12
41	28
42	35
43	369
44	9
45	1
52	1
53	5
55	12
56	2
57	77
58	813
59	27
60	2
