Mass Spectrum: Methylamine, N,N-dimethyl-
Formula: C3H9N
CAS: 75-50-3
Molecular weight: 59
m/z	intensity
13	1
14	6
15	71
16	16
26	5
27	16
28	98
29	54
30	323
31	5
38	3
39	4
40	21
41	33
42	248
43	91
44	51
45	18
46	1
51	1
52	3
54	4
55	2
56	37
57	88
58	999
59	683
60	26
