Mass Spectrum: Aziridine, 2-methyl-
Formula: C3H7N
CAS: 75-55-8
Molecular weight: 57
m/z	intensity
12	1
13	2
14	9
15	32
16	1
24	2
25	10
26	88
27	161
28	820
29	230
30	270
31	5
36	3
37	16
38	36
39	78
40	69
41	101
42	237
43	8
50	4
51	22
52	38
53	4
54	49
55	13
56	999
57	561
58	21
