Mass Spectrum: Bromotrifluoromethane
Formula: CBrF3
CAS: 75-63-8
Molecular weight: 148
m/z	intensity
26	1
27	1
29	1
30	1
31	33
39	1
40	0
41	3
42	1
43	3
44	2
50	77
51	1
55	2
56	2
57	3
64	6
65	6
67	1
69	999
70	15
71	1
79	61
80	3
81	58
82	3
83	1
84	1
85	1
91	3
92	0
93	3
94	0
95	1
96	1
97	1
98	1
99	0
100	1
101	0
109	1
110	2
111	1
112	2
128	1
129	122
130	2
131	122
132	1
147	1
148	107
149	1
150	102
151	2
