Mass Spectrum: Chloral
Formula: C2HCl3O
CAS: 75-87-6
Molecular weight: 146
m/z	intensity
25	37
26	7
28	22
29	446
30	10
31	6
33	2
35	232
36	142
37	77
38	47
39	4
40	19
41	21
42	16
43	5
44	5
47	612
48	269
49	232
50	89
51	17
53	3
55	3
56	1
58	1
59	16
60	48
61	12
62	15
63	9
65	5
67	1
70	6
72	4
74	2
75	3
76	59
77	8
78	19
79	7
80	3
82	999
83	403
84	689
85	259
86	125
87	44
88	2
91	2
92	1
93	3
94	4
95	3
96	6
97	2
98	2
105	2
110	104
111	413
112	130
113	270
114	43
115	46
116	6
117	93
118	98
119	90
120	94
121	34
122	34
123	4
124	3
146	46
147	0
148	41
149	0
150	14
151	0
152	1
