Mass Spectrum: 1-Methyl-2-oxocyclohexanecarboxylic acid, methyl ester
Formula: C9H14O3
CAS: 7500-91-6
Molecular weight: 170
m/z	intensity
24	1
25	5
26	66
27	510
28	139
29	279
30	14
31	28
32	4
33	7
36	3
37	18
38	23
39	480
40	111
41	999
42	365
43	221
44	22
45	46
46	1
47	1
48	1
49	2
50	19
51	38
52	25
53	141
54	90
55	917
56	95
57	67
58	18
59	252
60	9
61	7
62	5
63	8
64	2
65	22
66	19
67	211
68	183
69	615
70	60
71	33
72	16
73	82
74	165
75	11
76	1
77	20
78	6
79	32
80	5
81	99
82	345
83	372
84	52
85	32
86	10
87	169
88	361
89	21
90	2
91	9
92	5
93	31
94	11
95	90
96	44
97	26
98	5
99	54
100	46
101	169
102	11
103	2
105	1
107	1
108	3
109	28
110	265
111	245
112	21
113	32
114	116
115	18
116	2
118	1
119	3
120	2
121	3
122	1
123	7
124	5
125	45
126	27
127	394
128	34
129	6
137	68
138	173
139	151
140	14
141	10
142	200
143	18
144	2
151	1
152	6
153	1
155	45
156	4
169	1
170	292
171	32
172	3
