Mass Spectrum: Methanamine, N-(diphenylmethylene)-, N-oxide
Formula: C14H13NO
CAS: 7500-79-0
Molecular weight: 211
m/z	intensity
51	460
77	940
105	999
108	20
118	130
152	20
165	100
180	400
181	120
182	540
194	80
195	30
210	90
211	330
