Mass Spectrum: 4-Bromophenacyl acetate
Formula: C10H9BrO3
CAS: 7500-37-0
Molecular weight: 256
m/z	intensity
43	999
44	23
50	225
63	30
64	7
75	248
76	201
77	26
89	31
90	30
91	3
104	32
105	4
107	2
129	3
131	4
155	94
157	96
158	5
169	7
171	7
183	329
185	333
186	22
196	4
198	4
256	10
258	10
