Mass Spectrum: 1H-Pyrazole, 4,5-dihydro-5-propyl-
Formula: C6H12N2
CAS: 75011-90-4
Molecular weight: 112
m/z	intensity
26	7
27	52
28	32
29	17
30	7
39	36
41	50
42	216
43	32
53	6
54	6
55	7
56	9
68	32
69	999
70	41
83	7
112	92
113	8
