Mass Spectrum: Benzene, 1-chloro-2-[2-(2-chloroethoxy)ethoxy]-
Formula: C10H12Cl2O2
CAS: 7501-11-3
Molecular weight: 234
m/z	intensity
14	3
15	10
16	1
17	1
18	7
19	7
26	6
27	188
28	53
29	16
30	3
31	13
32	8
36	3
37	4
38	13
39	25
41	6
42	4
43	41
44	10
45	437
46	11
47	4
49	14
50	31
51	23
52	2
53	4
55	2
57	3
60	4
61	8
62	22
63	999
64	42
65	344
66	10
71	4
72	4
73	44
74	15
75	98
76	20
77	21
78	5
79	3
84	3
85	10
86	3
87	4
89	5
91	41
92	9
93	34
94	5
95	10
99	64
100	18
101	22
102	7
106	28
107	381
108	26
109	151
110	9
111	151
112	14
113	65
114	6
115	6
119	6
120	10
125	8
126	3
127	38
128	404
129	40
130	131
131	10
136	4
137	2
139	2
141	39
142	4
143	13
151	11
152	2
153	13
154	7
155	51
156	7
157	19
172	6
174	4
176	2
185	19
186	2
187	6
190	3
192	2
198	4
200	2
215	2
233	7
234	235
235	26
236	151
237	17
238	25
239	3
