Mass Spectrum: A-Norcholestane-3-carboxylic acid, 2-oxo-, methyl ester, (3.alpha.)-
Formula: C28H46O3
CAS: 75023-18-6
Molecular weight: 430
m/z	intensity
53	180
54	70
55	999
56	160
57	560
58	40
59	50
65	110
66	50
67	580
68	220
69	470
70	110
71	250
77	220
78	50
79	580
80	90
81	670
82	160
83	250
84	90
85	250
86	40
87	40
91	360
92	150
93	470
94	180
95	560
96	70
97	160
101	110
105	420
106	130
107	380
108	160
109	360
110	90
111	110
115	50
116	50
117	150
118	40
119	310
120	150
121	350
122	130
123	220
124	50
127	70
129	50
130	40
131	180
132	70
133	180
134	90
136	220
137	90
138	130
139	40
143	50
145	150
146	70
147	250
148	130
149	220
150	70
151	40
157	70
159	180
160	90
161	270
162	90
163	110
164	50
167	40
168	130
169	40
171	40
172	40
173	150
174	110
175	200
176	150
177	110
187	310
188	150
189	160
190	50
191	50
197	50
198	40
199	70
200	40
201	160
202	70
203	200
204	40
205	40
207	50
208	50
215	400
216	180
217	440
218	160
219	50
220	40
229	450
230	250
231	110
257	110
258	70
259	50
261	250
262	90
275	670
276	440
277	110
278	40
285	70
290	70
301	70
313	40
314	40
315	70
316	90
319	110
320	40
341	50
342	40
356	70
369	70
370	90
371	90
382	110
383	40
397	180
398	110
399	180
400	50
401	110
415	160
416	70
430	290
431	110
432	40
