Mass Spectrum: Decane, 5-methyl-6-methylene-
Formula: C12H24
CAS: 75029-95-7
Molecular weight: 168
m/z	intensity
24	0
25	0
26	3
27	86
28	15
29	120
30	3
37	0
38	1
39	65
40	14
41	260
42	58
43	159
44	3
50	2
51	4
52	3
53	35
54	21
55	288
56	999
57	250
58	10
63	0
64	0
65	7
66	3
67	34
68	30
69	251
70	196
71	20
72	0
73	0
77	7
78	1
79	7
80	1
81	14
82	9
83	62
84	37
85	8
86	0
91	2
92	0
93	0
94	0
95	5
96	1
97	14
98	38
99	12
100	0
106	0
108	0
109	1
110	7
111	54
112	7
113	0
123	0
124	0
125	0
126	14
127	2
139	0
140	1
166	0
167	0
168	29
169	4
170	0
