Mass Spectrum: .alpha.-Ethyl-o-methoxybenzyl alcohol
Formula: C10H14O2
CAS: 75038-24-3
Molecular weight: 166
m/z	intensity
39	483
43	138
51	100
65	362
77	897
91	448
103	100
105	379
107	999
109	310
115	190
119	310
121	379
133	155
135	276
137	948
148	138
166	34
