Mass Spectrum: Butanoic acid, 3-hydroxy-2,2-dimethyl-, ethyl ester
Formula: C8H16O3
CAS: 7505-94-4
Molecular weight: 160
m/z	intensity
25	3
26	43
27	284
28	64
29	319
30	27
31	105
37	8
38	15
39	170
40	68
41	404
42	261
43	400
44	64
45	386
46	18
47	20
50	9
51	18
52	10
53	60
54	20
55	114
56	17
57	189
58	24
59	183
60	50
61	12
62	6
63	7
64	5
65	10
66	8
67	26
68	20
69	248
70	571
71	192
72	42
73	571
74	37
75	18
76	5
77	7
78	5
79	8
80	6
81	12
82	8
83	31
84	9
85	34
86	31
87	487
88	999
89	94
90	13
91	8
92	4
93	7
94	5
95	9
96	25
97	19
98	9
99	148
100	12
101	14
102	6
103	4
104	5
105	4
106	3
107	5
108	4
109	6
110	4
111	6
112	5
113	17
114	31
115	172
116	823
117	104
118	12
119	4
120	3
121	4
122	3
123	4
124	4
125	4
126	3
127	8
128	4
142	12
143	15
144	3
145	56
146	6
161	30
162	3
