Mass Spectrum: 1-Propanol, 3-chloro-, phenylcarbamate
Formula: C10H12ClNO2
CAS: 7507-38-2
Molecular weight: 213
m/z	intensity
41	654
42	39
43	12
44	5
45	11
47	8
49	149
50	31
51	142
52	32
53	7
54	8
55	5
56	4
57	10
58	4
59	9
61	14
62	16
63	73
64	81
65	331
66	124
67	9
69	2
70	0
71	4
73	2
74	7
75	17
76	16
77	253
79	50
80	5
81	1
82	0
83	2
84	27
86	19
88	5
89	1
90	9
91	85
92	229
93	999
94	79
95	4
97	0
100	1
102	0
103	4
104	10
106	275
107	19
108	1
111	0
115	2
116	0
117	5
118	17
119	100
120	259
121	22
122	1
126	1
127	7
129	3
130	1
132	14
134	97
136	24
137	214
138	20
140	10
142	4
146	2
150	6
151	1
154	7
156	3
157	1
160	2
164	1
168	1
169	0
170	0
176	0
177	1
178	5
179	0
182	0
211	0
212	1
213	471
214	26
215	178
216	16
217	1
