Mass Spectrum: Naphtho[2,3-b]furan-4,9-dione, 2,3-dihydro-5,6,7,8-tetrahydroxy-
Formula: C12H8O7
CAS: 75083-41-9
Molecular weight: 264
m/z	intensity
50	232
51	250
53	535
55	660
56	285
57	999
58	232
60	107
61	160
62	214
63	321
64	196
65	410
66	339
67	196
68	125
69	785
70	232
71	678
73	107
74	196
75	321
76	392
77	178
81	285
83	285
85	196
93	196
95	196
97	160
104	285
111	142
121	178
127	196
132	321
149	595
150	67
160	464
167	160
177	232
178	107
205	178
234	999
235	107
264	946
265	107
