Mass Spectrum: Benzoic acid, 4-(phenylazo)-, ethyl ester
Formula: C15H14N2O2
CAS: 7508-68-1
Molecular weight: 254
m/z	intensity
17	2
26	2
27	15
28	8
29	47
30	1
31	1
37	1
38	5
39	19
40	2
41	2
43	2
45	3
50	46
51	97
52	8
53	3
57	1
62	4
63	14
64	14
65	110
66	6
71	1
74	9
75	51
76	109
77	999
78	71
79	5
88	1
89	2
90	3
91	6
92	3
93	22
94	2
101	1
102	2
103	247
104	127
105	453
106	33
107	2
115	2
119	1
120	4
121	115
122	9
123	1
126	3
127	6
128	1
139	1
141	2
142	1
149	647
150	68
151	20
152	64
153	52
154	9
155	1
165	2
166	1
167	2
169	1
170	2
177	99
178	10
179	3
180	2
181	28
182	5
183	1
198	2
209	115
210	16
211	1
225	1
226	2
253	1
254	610
255	108
256	13
257	1
