Mass Spectrum: Acetamide, N-(1,3-dimethyl-1H-5-pyrazolyl)-
Formula: C7H11N3O
CAS: 75092-37-4
Molecular weight: 153
m/z	intensity
34	0
36	0
37	4
38	18
39	108
40	50
41	138
42	151
43	540
44	22
45	14
46	3
49	0
52	43
53	25
54	34
55	16
56	12
57	19
58	1
63	0
64	3
65	5
66	66
67	71
68	72
69	43
70	17
71	4
79	2
80	6
81	16
82	25
83	122
84	8
85	0
93	7
94	4
95	5
96	121
97	8
108	4
110	499
111	999
112	79
113	1
122	1
124	2
136	3
137	3
138	3
153	544
154	43
155	3
