Mass Spectrum: 2,4,6-Tris(2,2,4-trimethylpenyloxy)-s-triazine
Formula: C27H51N3O3
CAS: 751-27-9
Molecular weight: 465
m/z	intensity
54	42
55	250
56	96
57	726
58	42
69	104
70	20
71	149
72	21
81	25
82	24
83	57
87	38
97	25
98	24
99	50
113	113
114	33
130	999
131	41
143	281
144	62
154	8
156	8
167	8
168	8
184	158
185	7
197	7
198	16
226	59
227	7
242	122
243	16
255	17
256	7
296	13
310	7
338	8
354	37
355	8
367	3
408	4
409	4
465	28
466	7
