Mass Spectrum: 2-(4-Methoxy-phenylthio)-indan
Formula: C16H16OS
CAS: 75102-59-9
Molecular weight: 256
m/z	intensity
39	74
43	31
45	32
51	30
63	51
65	62
77	32
89	38
91	183
95	37
96	50
97	43
115	517
116	279
117	999
118	95
125	145
139	81
140	203
141	62
142	31
148	38
256	511
257	94
258	31
