Mass Spectrum: 2-(4-Fluoro-phenylthio)indan
Formula: C15H13FS
CAS: 75102-58-8
Molecular weight: 244
m/z	intensity
51	25
63	52
65	39
73	82
89	46
91	156
115	564
116	670
117	999
118	95
127	69
128	36
244	399
245	69
246	22
