Mass Spectrum: Pyrrolidine-2,3-dione, 1-(1,1-dimethylethyl)-
Formula: C8H13NO2
CAS: 7510-23-8
Molecular weight: 155
m/z	intensity
41	459
42	179
43	469
44	229
45	18
51	18
54	66
55	490
57	999
58	583
59	71
70	102
71	81
82	134
83	84
85	55
99	327
100	102
108	23
112	26
140	321
155	503
