Mass Spectrum: 5-Nitro-1-phenyl-1,2,3-benzotriazole
Formula: C12H8N4O2
CAS: 75116-67-5
Molecular weight: 240
m/z	intensity
30	109
37	28
38	101
39	115
40	17
41	3
44	11
46	62
50	204
51	693
52	63
53	6
61	59
62	207
63	432
64	83
65	48
69	37
73	18
74	167
75	132
76	134
77	999
78	71
79	23
80	3
83	19
86	13
87	37
88	56
89	62
90	17
91	6
92	3
98	1
99	6
100	5
101	8
102	10
103	13
111	2
113	25
114	10
115	30
116	10
126	11
127	29
128	34
129	2
137	10
138	25
139	184
140	154
141	14
145	3
153	12
154	78
155	7
164	43
165	75
166	359
167	52
182	87
183	8
194	27
195	4
212	6
240	195
241	35
242	2
