Mass Spectrum: Benzoic acid, 2,3-dihydroxy-6-(2-phenylethyl)-, methyl ester
Formula: C16H16O4
CAS: 75112-82-2
Molecular weight: 272
m/z	intensity
107	999
108	520
121	70
134	500
147	90
165	200
166	220
212	40
240	340
272	630
