Mass Spectrum: n-Hexan-1,6-diol, O,O'-bis[4-nitrophenyl]-, ether
Formula: C18H20N2O6
CAS: 7511-70-8
Molecular weight: 360
m/z	intensity
41	302
43	67
44	1
45	1
46	1
50	24
51	13
53	43
55	999
56	20
57	7
60	0
63	51
64	12
65	75
67	95
68	7
69	7
71	2
75	52
76	26
77	30
78	29
79	13
81	49
82	42
83	591
84	21
85	0
89	1
91	7
92	44
93	36
94	12
95	0
96	1
99	0
103	2
106	51
107	9
109	42
110	3
115	1
119	8
120	2
122	19
123	146
124	12
125	0
128	0
131	14
133	51
134	3
135	3
136	3
140	160
141	7
142	1
145	0
147	4
149	5
150	0
152	119
153	6
158	0
159	0
161	2
162	1
163	0
165	11
166	4
167	0
168	0
174	6
176	83
177	6
178	8
180	5
186	1
192	0
204	4
205	2
206	0
214	0
220	1
222	62
223	4
224	0
284	0
315	5
316	0
328	10
329	2
330	1
342	5
344	28
345	6
346	1
359	7
360	195
361	40
362	5
363	0
