Mass Spectrum: Benzoic acid, 2,3-dihydroxy-6-(2-phenylethyl)-
Formula: C15H14O4
CAS: 75112-81-1
Molecular weight: 258
m/z	intensity
107	999
108	750
120	120
134	330
151	130
165	130
181	80
195	100
214	700
240	150
258	580
