Mass Spectrum: 17-Octadecene-9,11-diynoic acid, 8-oxo-, methyl ester
Formula: C19H26O3
CAS: 75112-83-3
Molecular weight: 302
m/z	intensity
91	999
92	170
93	240
103	220
104	220
105	260
115	230
116	340
117	440
129	200
131	480
132	250
145	200
159	580
160	160
171	260
174	100
243	3
271	20
287	20
302	5
