Mass Spectrum: 4-Nitrophenoxyacetic acid hydrazide
Formula: C8H9N3O4
CAS: 75129-74-7
Molecular weight: 211
m/z	intensity
13	1
14	7
15	15
16	4
17	8
18	44
25	2
26	13
27	21
29	55
30	89
31	215
32	79
37	12
38	52
39	112
40	10
41	17
42	88
43	115
44	43
45	747
46	19
49	4
50	184
51	72
52	42
53	53
54	14
55	24
56	3
58	10
59	6
60	2
61	14
62	45
63	142
64	99
65	135
66	30
67	5
68	6
69	1
72	7
73	999
74	87
75	207
76	267
77	67
78	85
79	19
80	34
81	37
82	6
89	2
90	6
91	8
92	146
93	61
94	34
95	7
96	2
97	1
104	2
105	11
106	100
107	23
108	48
109	135
110	11
119	1
120	5
121	5
122	232
123	123
124	15
125	1
133	1
134	4
135	3
136	17
137	2
138	1
139	90
140	37
141	2
146	1
148	2
149	1
150	4
151	2
152	176
153	34
154	3
165	1
166	3
176	1
178	2
181	17
182	2
195	2
196	7
211	71
212	7
