Mass Spectrum: 4-Acetamido-1,2-diacetoxynaphthalene
Formula: C16H15NO5
CAS: 7512-51-8
Molecular weight: 301
m/z	intensity
43	999
44	19
45	1
50	5
51	34
52	7
53	5
55	2
56	1
57	2
58	0
60	0
61	0
62	2
63	27
65	8
66	0
68	23
69	3
70	2
71	0
74	10
76	70
78	5
80	2
83	0
84	0
85	0
86	2
89	63
90	20
91	11
92	2
93	0
94	0
97	3
98	0
99	1
101	19
102	32
104	84
106	2
113	0
114	0
115	5
116	25
117	11
118	2
119	0
121	0
126	0
127	11
128	5
129	55
130	43
131	2
132	1
133	0
140	1
142	3
144	9
145	11
146	169
148	0
154	0
156	3
158	4
159	2
160	0
162	0
170	3
172	10
174	120
175	561
176	45
184	1
186	2
187	1
188	1
192	0
198	5
199	0
200	0
201	7
202	0
215	26
217	796
218	37
219	3
220	0
242	2
244	3
256	0
259	236
260	46
261	3
262	0
274	0
301	61
302	16
303	3
