Mass Spectrum: Furan, 2-(2-propenyl)-
Formula: C7H8O
CAS: 75135-41-0
Molecular weight: 108
m/z	intensity
25	4
26	23
27	153
29	21
37	25
38	64
39	310
40	33
41	25
49	10
50	82
51	156
52	120
53	131
54	60
55	2
57	5
61	8
62	13
63	36
64	11
65	42
66	53
67	4
68	15
73	3
74	9
75	21
76	8
77	504
78	91
79	831
80	102
81	216
82	14
89	6
90	2
91	1
92	3
93	6
96	3
105	3
107	226
108	999
109	73
110	5
