Mass Spectrum: Tris(methylsulfonyl)hydroxylamine
Formula: C3H9NO7S3
CAS: 75142-05-1
Molecular weight: 267
m/z	intensity
29	40
30	660
36	30
44	40
45	30
48	120
63	430
64	150
65	50
79	999
80	70
81	100
92	170
94	70
95	20
97	70
111	150
126	170
141	80
143	110
158	50
188	80
