Mass Spectrum: 2-[Ethyl(methyl)amino]ethyl cyclohexyl(hydroxy)phenylacetate
Formula: C19H29NO3
CAS: 751416-59-8
Molecular weight: 319
m/z	intensity
15	2
18	1
26	1
27	10
28	9
29	21
30	15
31	1
32	1
39	10
40	2
41	41
42	41
43	25
44	73
45	7
50	3
51	12
52	2
53	7
54	6
55	68
56	24
57	27
58	68
59	14
60	1
63	1
65	4
66	1
67	8
68	1
69	5
70	21
71	7
72	999
73	54
74	3
75	1
76	3
77	58
78	9
79	37
80	3
81	3
82	1
83	10
84	3
85	184
86	66
87	6
88	15
89	2
90	1
91	31
92	3
93	2
97	1
100	1
101	1
102	20
103	11
104	13
105	104
106	11
107	46
108	4
111	1
115	10
116	3
117	4
118	1
119	1
120	4
121	2
127	2
128	6
129	11
130	3
131	3
132	2
133	9
134	1
141	2
142	1
143	2
144	1
145	2
146	1
147	1
149	1
152	1
155	1
157	1
159	1
169	1
170	1
171	2
172	1
177	1
178	1
187	1
188	10
189	26
190	3
236	5
237	10
238	1
304	3
305	1
318	1
319	1
