Mass Spectrum: 9-Methylene-tricyclo[4.2.1.1(2,5)]decane
Formula: C11H16
CAS: 75156-66-0
Molecular weight: 148
m/z	intensity
26	9
27	179
28	25
29	48
37	1
38	11
39	219
40	36
41	222
42	11
43	1
50	19
51	69
52	42
53	116
54	15
55	30
56	1
58	5
59	2
62	4
63	24
64	8
65	88
66	487
67	454
68	26
69	5
74	1
75	5
76	2
77	150
78	58
79	382
80	464
81	999
82	411
83	25
89	5
90	3
91	236
92	77
93	49
94	29
95	5
102	1
103	13
104	6
105	79
106	42
107	48
108	3
115	9
116	2
117	10
118	3
119	92
120	34
121	2
133	29
134	2
147	3
148	29
149	4
