Mass Spectrum: Octadecane, 2,6-dimethyl-
Formula: C20H42
CAS: 75163-97-2
Molecular weight: 282
m/z	intensity
39	432
40	22
41	432
42	120
43	838
44	31
53	24
54	20
55	243
56	197
57	999
58	45
67	28
68	18
69	126
70	90
71	703
72	36
81	10
82	16
83	62
84	62
85	228
86	15
95	4
96	10
97	53
98	18
99	73
100	4
110	4
111	24
112	97
113	141
114	13
124	3
125	15
126	9
127	47
128	4
138	3
139	6
140	5
141	29
142	4
153	5
154	6
155	15
156	1
167	2
168	13
169	10
170	2
182	4
183	4
184	2
196	54
197	49
198	8
210	3
211	4
224	2
225	2
238	2
239	5
240	1
252	2
253	4
254	1
266	1
267	8
268	2
282	3
283	1
