Mass Spectrum: 3-Pentenamide, N,N-diethyl-
Formula: C9H17NO
CAS: 75162-96-8
Molecular weight: 155
m/z	intensity
25	1
26	17
27	124
28	48
29	270
30	31
31	1
37	1
38	3
39	48
40	7
41	24
42	57
43	9
44	162
45	3
46	0
49	0
50	6
51	10
52	6
53	35
54	23
55	174
56	49
57	9
58	174
59	8
63	0
65	1
66	1
67	3
68	5
69	10
70	31
71	9
72	968
73	46
74	6
75	3
76	0
77	1
78	1
79	2
80	2
81	11
82	17
83	53
84	14
85	4
86	5
87	3
88	1
91	1
93	0
94	1
95	1
96	3
97	1
98	6
99	1
100	999
101	60
102	3
107	0
108	0
109	0
110	2
111	2
112	15
113	2
114	1
115	1
122	0
124	3
126	87
127	13
128	1
133	0
135	0
138	1
140	45
141	4
142	0
151	0
152	0
153	0
154	7
155	198
156	32
157	2
