Mass Spectrum: Eicosane, 2,4-dimethyl-
Formula: C22H46
CAS: 75163-98-3
Molecular weight: 310
m/z	intensity
39	59
40	16
41	378
42	97
43	933
44	27
53	22
54	23
55	289
56	199
57	800
58	34
67	39
68	23
69	188
70	76
71	444
72	24
73	11
81	14
82	20
83	103
84	296
85	999
86	62
95	8
96	15
97	71
98	23
99	141
100	10
110	9
111	41
112	13
113	99
114	8
124	6
125	22
126	11
127	73
128	8
138	5
139	13
140	9
141	62
142	8
152	3
153	8
154	5
155	46
156	5
166	3
167	5
168	5
169	38
170	4
181	4
182	2
183	28
184	4
195	4
196	4
197	19
198	4
211	10
212	1
224	15
225	13
226	2
238	3
239	2
251	3
252	41
253	65
254	11
266	16
267	34
268	7
295	8
296	2
