Mass Spectrum: Nonadecane, 2,3-dimethyl-
Formula: C21H44
CAS: 75163-99-4
Molecular weight: 296
m/z	intensity
39	93
40	21
41	502
42	136
43	999
44	36
53	29
54	33
55	358
56	150
57	830
58	35
67	45
68	31
69	186
70	168
71	717
72	37
73	20
81	20
82	35
83	132
84	57
85	397
86	25
96	29
97	114
98	25
99	141
100	10
110	16
111	66
112	21
113	98
114	8
124	10
125	37
126	17
127	73
128	6
138	6
139	23
140	12
141	61
142	15
152	5
153	13
154	11
155	50
156	4
166	4
167	11
168	8
169	46
170	6
181	10
182	5
183	39
184	4
195	8
196	7
197	26
198	4
209	6
210	3
211	9
212	2
224	6
225	16
226	5
252	165
253	172
254	27
