Mass Spectrum: 1-[p-Chlorophenyl]cyclopentanemethylamine
Formula: C12H16ClN
CAS: 75180-51-7
Molecular weight: 209
m/z	intensity
41	369
42	40
43	29
44	124
45	5
46	1
48	0
49	3
50	47
51	106
52	25
53	29
54	19
55	15
56	22
57	7
58	8
59	3
60	4
61	6
62	25
63	86
64	17
65	56
66	14
67	171
68	14
69	8
70	8
71	7
72	2
73	16
74	18
75	64
76	23
77	86
78	17
79	10
80	4
81	8
82	2
83	2
84	5
85	7
86	8
87	17
88	11
89	99
90	33
91	82
92	5
94	0
96	1
97	5
98	6
99	25
100	5
101	48
102	43
103	37
104	7
105	3
106	0
111	9
112	8
113	17
114	28
115	345
116	144
117	37
118	6
119	1
123	6
124	7
125	999
126	73
127	310
128	86
129	42
130	23
131	14
132	3
136	15
137	12
138	20
139	22
140	16
141	58
142	41
143	125
144	31
145	34
146	3
149	28
150	6
151	37
152	10
153	14
154	3
155	1
156	1
157	2
158	2
162	9
163	6
164	6
165	4
166	6
167	2
168	1
172	1
173	0
174	2
175	2
176	4
177	16
178	390
179	357
180	154
181	98
182	10
191	0
193	13
194	1
195	5
207	4
208	1
209	107
210	15
211	36
212	4
