Mass Spectrum: L-Proline, 1-nitroso-
Formula: C5H8N2O3
CAS: 7519-36-0
Molecular weight: 144
m/z	intensity
30	331
31	62
38	46
39	281
40	109
41	999
42	359
43	124
44	54
45	203
46	8
50	10
51	11
52	12
54	31
55	65
56	18
57	14
58	27
59	7
68	414
69	578
70	231
71	15
83	15
85	9
99	890
100	85
101	7
113	7
114	62
144	285
145	23
146	3
