Mass Spectrum: Riboflavin, 2',3',4',5'-tetraacetate
Formula: C25H28N4O10
CAS: 752-13-6
Molecular weight: 544
m/z	intensity
40	8
41	31
42	53
43	999
44	75
45	113
50	8
51	9
52	9
53	14
54	5
55	22
56	9
57	14
60	57
61	7
62	3
63	8
64	7
66	4
67	5
68	3
69	15
70	8
71	7
73	19
74	8
75	7
77	31
78	9
79	13
81	42
83	7
85	28
86	9
88	4
89	9
90	7
91	18
92	5
93	3
97	11
98	30
99	28
100	4
101	8
102	15
103	59
104	17
105	13
112	3
113	3
115	43
116	38
117	13
118	11
127	15
128	10
129	13
130	26
131	9
140	12
141	51
142	13
143	8
144	13
145	19
146	4
156	74
157	80
158	54
159	22
168	6
169	13
170	62
171	181
172	53
173	11
183	8
184	43
185	28
186	12
195	3
196	24
197	32
198	71
199	45
200	20
201	12
209	16
210	24
212	12
213	61
214	41
224	9
225	8
228	9
236	5
238	7
241	7
242	917
243	745
244	103
245	4
255	3
256	156
257	35
264	4
267	16
268	10
270	7
281	19
283	5
285	39
286	3
297	7
308	18
311	4
315	10
323	7
324	5
327	9
339	10
341	22
343	4
345	12
357	3
358	4
367	8
369	9
370	3
375	11
378	3
381	3
383	140
384	20
385	5
387	10
401	16
417	30
418	7
425	33
426	18
427	7
429	20
430	7
441	24
442	24
443	41
444	13
459	57
460	5
461	5
484	5
485	306
486	109
487	23
501	148
502	56
503	11
504	3
