Mass Spectrum: Riboflavin, 2',3',4',5'-tetrabutanoate
Formula: C33H44N4O10
CAS: 752-56-7
Molecular weight: 656
m/z	intensity
14	7
15	17
16	3
17	1
18	4
25	3
26	31
27	192
28	89
29	87
30	5
31	9
32	4
34	1
36	3
37	13
38	24
39	140
40	28
41	262
42	176
43	507
44	93
45	111
46	5
47	5
49	2
50	12
51	27
52	18
53	29
54	18
55	177
56	22
57	44
58	7
59	6
60	999
61	29
62	9
63	17
64	12
65	36
66	19
67	27
68	19
69	68
70	81
71	764
72	37
73	355
74	16
75	12
76	14
77	52
78	23
79	26
80	15
81	77
82	36
83	39
84	23
85	22
86	28
87	29
88	27
89	32
90	16
91	40
92	11
93	12
94	9
95	22
96	17
97	40
98	50
99	19
100	13
101	19
102	30
103	50
104	26
105	26
106	8
107	12
108	8
109	16
110	13
111	18
112	9
113	9
114	16
115	22
116	48
117	27
118	18
119	10
120	5
121	12
122	7
123	10
124	9
125	10
126	12
127	12
128	23
129	38
130	48
131	30
132	7
133	7
134	4
135	7
136	4
137	7
138	6
139	8
140	14
141	22
142	15
143	41
144	28
145	18
146	7
147	7
148	4
149	5
150	5
151	7
152	9
153	14
154	11
155	24
156	252
157	70
158	24
159	10
160	4
161	3
162	3
163	4
164	3
165	5
166	6
167	10
168	34
169	49
170	130
171	320
172	72
173	13
174	3
175	3
176	2
177	3
178	3
179	6
180	9
181	18
182	23
183	20
184	20
185	16
186	17
187	6
188	2
189	2
190	2
191	3
192	6
193	12
194	16
195	18
196	76
197	51
198	73
199	88
200	24
201	13
202	3
203	2
204	2
205	5
206	9
207	16
208	26
209	78
210	128
211	31
212	10
213	33
214	21
215	5
216	3
217	3
218	5
219	6
220	17
221	17
222	25
223	27
224	68
225	20
226	13
227	15
228	8
229	7
230	3
231	3
232	5
233	7
234	33
235	88
236	80
237	43
238	38
239	12
240	9
241	20
242	626
243	510
244	76
245	9
246	4
247	4
248	7
249	7
250	17
251	22
252	19
253	10
254	9
255	9
256	63
257	22
258	5
259	3
260	5
261	7
262	9
263	10
264	12
265	8
266	24
267	62
268	24
269	16
270	7
271	3
272	3
273	2
274	2
275	3
276	4
277	8
278	12
279	16
280	28
281	172
282	35
283	9
284	5
285	12
286	5
287	2
288	2
289	2
290	2
291	3
292	4
293	9
294	9
295	21
296	10
297	10
298	6
299	3
300	2
301	2
302	2
303	2
304	7
305	9
306	35
307	66
308	98
309	23
310	7
311	8
312	5
313	6
314	3
315	6
316	2
317	2
318	2
319	2
320	3
321	12
322	18
323	42
324	47
325	12
326	5
327	5
328	2
329	2
330	1
331	1
332	1
333	1
334	1
335	1
336	2
337	3
338	2
339	9
340	9
341	28
342	7
343	5
344	2
345	9
346	3
347	3
348	2
349	2
350	2
351	1
352	1
353	2
354	2
355	3
356	2
357	7
358	3
359	8
360	2
361	1
364	1
365	2
366	3
367	4
368	6
369	3
370	1
374	1
375	13
376	5
377	5
378	1
379	2
380	1
381	3
382	3
383	3
384	2
385	3
386	2
387	1
392	3
393	8
394	15
395	11
396	9
397	4
398	2
399	2
408	1
409	7
410	12
411	72
412	21
413	6
414	2
415	4
416	2
427	6
428	6
429	12
430	4
431	2
438	1
445	19
446	9
447	3
448	1
453	1
454	1
455	1
469	2
470	1
480	3
481	18
482	92
483	28
484	6
485	4
486	2
496	1
497	9
498	18
499	20
500	7
501	2
515	17
516	13
517	5
518	2
569	26
570	15
571	5
572	1
585	12
586	17
587	5
656	2
657	2
