Mass Spectrum: tert-Butyl pentyl disulfide
Formula: C9H20S2
CAS: 75203-65-5
Molecular weight: 192
m/z	intensity
27	140
29	250
32	80
39	140
40	30
41	510
42	160
43	290
44	30
45	50
47	40
53	30
55	140
56	100
57	999
58	60
59	40
61	40
69	70
70	110
71	170
73	50
87	40
101	50
103	50
104	50
136	130
192	160
