Mass Spectrum: tert-Butyl 3-methylbutyl disulfide
Formula: C9H20S2
CAS: 75203-68-8
Molecular weight: 192
m/z	intensity
15	3
25	0
26	0
27	46
29	126
30	7
33	4
37	0
38	0
39	31
41	149
42	17
43	169
44	8
45	9
46	2
49	8
50	0
51	2
52	0
53	9
54	1
55	4
56	2
57	999
58	48
59	19
60	0
61	2
64	3
65	1
66	1
67	2
68	0
69	11
70	17
71	119
72	6
73	3
74	1
76	0
78	0
79	9
80	0
81	0
86	0
87	5
93	2
98	0
100	0
101	4
102	1
103	18
104	1
105	0
106	0
107	0
135	2
136	52
137	4
138	4
139	0
140	0
149	0
177	0
191	2
192	53
193	6
194	4
195	0
196	0
