Mass Spectrum: Isobutyl pentyl disulfide
Formula: C9H20S2
CAS: 75203-63-3
Molecular weight: 192
m/z	intensity
27	180
29	300
32	70
39	140
40	30
41	470
42	180
43	530
45	60
47	60
55	170
56	70
57	999
58	60
69	40
70	60
71	250
87	40
103	50
122	50
136	130
192	160
