Mass Spectrum: 2-Pentacosanone
Formula: C25H50O
CAS: 75207-54-4
Molecular weight: 366
m/z	intensity
52	1
53	12
54	24
55	285
56	92
57	412
58	845
59	999
60	31
66	1
67	57
68	47
69	151
70	55
71	491
72	36
79	4
81	61
82	114
83	91
84	22
85	191
86	14
89	2
95	48
96	119
97	79
98	13
99	9
100	25
101	1
102	1
109	27
110	28
111	46
113	29
114	19
123	16
124	12
125	7
127	35
128	3
138	8
140	2
141	3
144	1
146	1
152	6
153	6
155	3
156	3
166	2
168	2
169	3
170	4
171	2
172	1
173	1
174	2
180	2
181	1
183	2
184	2
186	1
194	2
195	3
198	2
200	2
201	1
211	1
212	1
214	1
222	4
223	2
224	1
226	1
228	1
229	1
232	0
236	5
237	1
239	2
240	1
243	2
248	3
249	2
250	5
252	1
253	1
254	1
255	2
257	1
258	3
260	0
263	2
264	6
265	1
266	4
268	2
271	2
274	2
278	5
279	1
280	2
285	1
287	1
288	1
289	3
290	1
292	6
294	0
295	2
296	3
298	2
300	1
301	0
302	2
303	2
304	1
305	1
306	21
307	7
308	12
309	7
310	5
311	3
313	1
316	1
318	2
319	2
320	0
321	2
322	1
323	7
324	4
325	3
327	4
329	1
330	1
331	4
333	1
334	1
335	2
336	2
337	3
338	3
340	1
341	1
342	1
343	1
345	1
346	2
347	4
348	26
349	9
350	1
351	24
352	8
353	1
354	2
359	2
361	1
363	3
364	2
366	77
367	20
368	4
