Mass Spectrum: Isobutyl 3-methylbutyl disulfide
Formula: C9H20S2
CAS: 75203-66-6
Molecular weight: 192
m/z	intensity
27	190
29	310
39	190
40	40
41	550
42	110
43	730
44	30
45	60
46	30
47	70
53	50
55	280
56	100
57	999
58	50
59	30
69	50
70	90
71	450
79	40
87	60
88	40
101	30
103	40
122	40
136	220
192	320
193	40
