Mass Spectrum: sec-Butyl pentyl disulfide
Formula: C9H20S2
CAS: 75203-64-4
Molecular weight: 192
m/z	intensity
15	10
25	0
26	12
27	160
29	579
30	38
33	1
34	1
35	13
37	1
38	8
39	138
40	19
41	671
42	90
43	999
44	37
45	53
46	21
47	38
48	1
49	2
50	1
51	4
52	2
53	19
54	8
55	85
56	33
57	452
58	32
59	49
60	20
61	30
62	2
63	1
64	10
65	5
66	9
67	8
68	3
69	36
70	53
71	539
72	32
73	9
74	2
75	0
76	0
77	0
78	2
79	20
80	0
81	1
87	10
88	6
89	2
90	0
91	0
92	1
93	4
94	0
95	0
99	0
100	0
101	7
102	4
103	108
104	7
105	5
106	0
107	1
121	0
122	1
123	0
124	0
131	0
134	0
135	9
136	179
137	14
138	14
139	1
140	0
163	0
190	0
191	4
192	98
193	13
194	9
195	1
196	0
