Mass Spectrum: Ethanone, 1-(4-methyl-2-phenyl-5-thiazolyl)-
Formula: C12H11NOS
CAS: 7520-94-7
Molecular weight: 217
m/z	intensity
43	999
44	50
45	310
51	70
69	60
70	50
71	550
72	220
77	100
87	60
103	40
104	180
114	150
121	10
133	60
174	190
202	900
203	110
204	50
217	810
218	120
219	50
