Mass Spectrum: 3,5-Dimethyl-2-(p-chlorophenylimino)-1,3-thiazolidine
Formula: C11H13ClN2S
CAS: 75220-51-8
Molecular weight: 240
m/z	intensity
39	69
41	89
42	269
43	69
44	49
45	49
46	9
50	59
51	39
52	9
55	19
56	89
57	14
58	9
59	39
60	79
61	999
62	39
63	24
64	29
65	9
68	9
69	9
70	79
71	19
72	49
73	79
74	69
75	179
76	39
77	19
85	19
88	19
89	9
90	59
91	9
99	44
100	9
101	19
102	69
103	29
106	9
108	19
111	119
112	29
113	69
114	9
115	49
120	19
122	9
124	9
125	149
126	29
127	69
128	9
129	19
130	9
131	9
134	19
135	19
136	19
137	59
138	289
140	179
141	24
142	29
143	19
144	19
151	29
152	19
153	19
154	9
156	19
162	14
163	39
164	39
165	119
166	149
167	59
168	59
169	199
170	119
172	49
182	29
184	9
197	49
198	169
199	39
200	59
201	9
239	319
240	769
241	249
242	309
243	49
