Mass Spectrum: 2-(4,5-Dichloroimidazol-1-yl)ethanol
Formula: C5H6Cl2N2O
CAS: 75242-71-6
Molecular weight: 180
m/z	intensity
30	89
31	168
35	140
36	73
37	76
38	263
39	209
40	153
41	154
42	120
43	356
44	198
45	999
47	701
48	75
49	288
50	76
51	279
52	329
53	74
54	70
55	21
56	11
57	7
59	70
60	83
61	387
62	325
63	153
64	139
65	37
66	25
67	9
68	4
69	3
70	6
71	4
73	314
74	271
75	201
76	134
77	59
78	19
79	40
80	3
82	181
83	21
84	127
85	85
86	533
87	207
88	491
89	80
90	112
91	7
94	152
95	67
96	111
97	50
98	22
99	16
100	60
101	52
102	83
103	38
104	17
105	4
108	101
109	524
110	141
111	324
112	72
113	646
114	38
115	283
116	30
117	40
118	10
120	7
122	111
123	51
124	72
125	31
126	16
127	5
136	963
137	500
138	631
139	301
140	116
141	47
144	3
145	27
146	3
147	9
149	273
150	102
151	186
152	60
153	34
154	7
162	2
164	1
179	7
180	578
181	48
182	376
183	31
184	59
