Mass Spectrum: Acetaldehyde, ethyl(1-methylethyl)hydrazone
Formula: C7H16N2
CAS: 75268-00-7
Molecular weight: 128
m/z	intensity
27	158
28	158
29	285
30	116
39	49
40	18
41	133
42	425
43	170
44	279
45	11
54	11
55	19
56	146
57	69
58	38
68	17
69	21
70	194
71	449
72	48
84	158
85	121
86	12
113	999
114	84
127	10
128	327
129	41
