Mass Spectrum: 2-Propenal, 2-methyl-, diethylhydrazone
Formula: C8H16N2
CAS: 75268-11-0
Molecular weight: 140
m/z	intensity
27	216
28	325
29	351
30	243
38	15
39	243
40	35
41	297
42	351
43	84
44	216
50	8
51	22
52	22
53	100
54	65
55	82
56	325
57	43
58	203
59	24
67	24
68	97
69	68
70	162
71	40
72	35
73	8
80	100
81	70
82	151
83	405
84	40
94	9
95	30
96	43
97	270
98	38
99	10
109	24
110	35
111	999
112	89
125	432
126	43
139	23
140	569
141	81
