Mass Spectrum: 2-Butanone, (2-ethoxyethyl)methylhydrazone
Formula: C9H20N2O
CAS: 75268-06-3
Molecular weight: 172
m/z	intensity
27	65
28	38
29	104
30	43
31	49
39	15
41	42
42	966
43	78
44	91
45	40
54	9
55	17
56	27
57	11
58	17
59	15
68	7
70	136
71	15
72	19
86	8
97	7
99	7
100	41
113	999
114	61
172	91
173	14
