Mass Spectrum: Acetaldehyde, 2-butenylhydrazone
Formula: C6H12N2
CAS: 75268-07-4
Molecular weight: 112
m/z	intensity
26	9
27	353
28	649
29	383
30	247
31	26
38	16
39	179
40	47
41	223
42	383
43	170
44	295
50	13
51	25
52	21
53	91
54	112
55	766
56	412
57	441
58	244
59	15
68	44
69	53
70	85
71	34
80	15
82	26
83	412
84	35
85	241
86	16
97	999
98	74
111	26
112	382
113	59
