Mass Spectrum: Hydrazine, 1,1-dimethyl-2-(1-methylbutyl)-
Formula: C7H18N2
CAS: 75267-97-9
Molecular weight: 130
m/z	intensity
27	44
28	34
29	33
30	37
39	17
40	4
41	39
42	79
43	93
44	204
45	139
46	22
55	8
56	7
57	120
58	30
59	999
60	148
61	6
70	10
71	14
72	7
73	9
85	8
86	14
87	222
88	14
101	3
115	37
116	6
130	278
131	36
