Mass Spectrum: Butanal, (2-ethoxyethyl)methylhydrazone
Formula: C9H20N2O
CAS: 75268-04-1
Molecular weight: 172
m/z	intensity
27	78
28	50
29	63
30	33
31	47
39	16
41	63
42	100
43	144
44	467
45	59
55	13
56	26
57	17
58	28
59	17
70	44
71	19
72	16
83	19
84	7
85	9
86	14
100	13
113	999
114	85
172	122
173	18
