Mass Spectrum: Propanal, di-2-propenylhydrazone
Formula: C9H16N2
CAS: 75268-09-6
Molecular weight: 152
m/z	intensity
28	118
29	102
30	26
38	12
39	214
40	46
41	999
42	90
43	69
53	24
54	56
55	562
56	96
57	8
58	8
67	33
68	47
69	40
70	30
73	14
81	22
82	22
83	90
84	14
94	15
95	11
96	21
97	10
109	11
110	7
111	20
123	32
124	27
125	96
126	10
137	10
151	14
152	169
153	27
