Mass Spectrum: Hydrazine, tri-2-butenyl-
Formula: C12H22N2
CAS: 75267-98-0
Molecular weight: 194
m/z	intensity
27	90
28	44
29	201
30	32
31	12
39	81
40	9
41	107
42	35
43	42
44	36
45	13
53	40
54	21
55	999
56	74
57	19
58	9
67	15
68	67
69	30
70	23
81	9
82	7
83	34
85	109
86	12
137	7
139	363
140	56
141	11
182	7
184	40
185	6
