Mass Spectrum: 1-Piperidinamine, N-ethylidene-
Formula: C7H14N2
CAS: 75267-99-1
Molecular weight: 126
m/z	intensity
29	244
30	137
39	131
40	42
41	311
42	619
43	83
44	166
53	31
54	57
55	363
56	184
57	101
67	23
68	33
69	358
70	285
71	109
73	32
82	119
83	155
84	250
85	202
97	273
111	202
125	999
126	810
127	62
