Mass Spectrum: 1-Phenylthio-4-acetoxy-2-butanone
Formula: C12H14O3S
CAS: 75273-64-2
Molecular weight: 238
m/z	intensity
15	100
16	10
17	30
18	200
26	30
27	210
28	190
29	50
31	10
32	20
36	10
37	10
38	20
39	160
40	10
41	40
42	70
43	690
44	60
45	999
46	20
47	40
49	10
50	70
51	220
52	20
53	10
54	10
55	700
56	20
57	30
58	20
59	10
60	230
61	10
62	10
63	40
64	10
65	210
66	120
67	10
69	110
70	20
71	10
73	20
74	20
75	10
76	10
77	230
78	60
79	100
81	10
82	20
83	10
84	50
86	10
87	10
91	40
108	60
109	240
110	290
111	30
112	10
115	50
117	10
118	10
121	30
122	40
123	990
124	110
125	70
135	30
136	60
137	20
149	90
150	60
151	10
152	10
164	20
165	10
167	20
178	370
179	70
180	20
214	10
218	30
238	40
239	10
