Mass Spectrum: 6-Propenylbicyclo[3.1.0]hexan-2-one
Formula: C9H12O
CAS: 75283-46-4
Molecular weight: 136
m/z	intensity
26	14
27	109
28	21
29	31
31	4
37	4
38	18
39	178
40	28
41	105
42	18
43	31
44	3
45	5
50	29
51	64
52	42
53	90
54	26
55	37
56	7
57	33
58	2
61	3
62	7
63	23
64	5
65	59
66	49
67	40
68	14
69	8
70	7
74	5
75	9
76	3
77	228
78	51
79	999
80	122
81	26
82	6
83	7
84	2
91	118
92	17
93	225
94	906
95	74
96	4
98	3
103	4
105	9
106	2
107	25
108	13
109	2
118	2
119	2
121	33
122	3
135	11
136	38
137	5
