Mass Spectrum: Benzoic acid, 2,3-bis(acetyloxy)-6-(2-phenylethyl)-
Formula: C19H18O6
CAS: 75299-43-3
Molecular weight: 342
m/z	intensity
107	999
108	400
121	180
134	600
149	140
176	240
214	60
240	540
258	290
282	480
300	330
324	60
342	50
