Mass Spectrum: 1,1-Difluoro-3,4-dibromo-1-silacyclopentane
Formula: C4H6Br2F2Si
CAS: 75292-55-6
Molecular weight: 278
m/z	intensity
39	50
41	20
51	90
52	519
53	729
54	110
55	20
93	519
94	40
95	30
119	999
120	270
121	60
198	80
199	769
200	150
201	779
202	70
203	30
