Mass Spectrum: 9-Octadecenoic acid, 12-hydroxy-13-methoxy-, methyl ester
Formula: C20H38O4
CAS: 75299-48-8
Molecular weight: 342
m/z	intensity
74	150
83	680
95	200
98	110
114	110
115	999
124	110
145	520
148	110
149	110
166	430
177	60
195	800
198	120
209	30
227	660
253	60
279	20
280	20
311	20
325	10
