Mass Spectrum: Methanamine, N,N-difluoro-
Formula: CH3F2N
CAS: 753-58-2
Molecular weight: 67
m/z	intensity
15	999
16	11
27	158
28	795
29	56
33	43
46	84
47	36
66	55
67	354
68	5
