Mass Spectrum: Dimethylphosphinic fluoride
Formula: C2H6FOP
CAS: 753-70-8
Molecular weight: 96
m/z	intensity
15	49
47	149
50	9
51	5
52	3
53	6
64	3
65	24
66	3
67	19
68	1
76	4
77	19
79	19
80	5
81	999
82	1
96	599
97	44
98	1
