Mass Spectrum: 2-Dodecylfuran
Formula: C16H28O
CAS: 75308-12-2
Molecular weight: 236
m/z	intensity
29	123
39	155
40	48
41	214
43	76
53	160
55	112
57	117
66	33
67	119
69	96
79	51
80	65
81	999
82	346
83	47
94	119
95	453
96	88
106	33
108	68
111	65
123	99
125	23
135	58
136	32
137	89
151	55
236	100
