Mass Spectrum: Phenol, 4-bromo-2-chloro-6-methyl-
Formula: C7H6BrClO
CAS: 7530-27-0
Molecular weight: 220
m/z	intensity
44	26
49	89
50	231
51	354
53	7
62	22
63	22
74	97
75	134
77	999
78	29
105	29
111	29
112	78
141	940
142	29
143	257
185	130
187	97
220	634
221	63
222	749
223	11
224	167
