Mass Spectrum: Cyclobutanone, 2-methyl-2-oxiranyl-
Formula: C7H10O2
CAS: 75314-19-1
Molecular weight: 126
m/z	intensity
38	100
39	999
40	520
41	999
42	210
43	430
51	130
53	570
54	210
55	820
56	590
67	490
68	170
69	710
70	120
83	370
84	120
98	290
