Mass Spectrum: Silane, (1-cyclopenten-1-ylmethyl)trimethyl-
Formula: C9H18Si
CAS: 75311-60-3
Molecular weight: 154
m/z	intensity
26	0
27	10
29	9
30	0
31	11
33	0
38	1
39	13
40	0
41	16
42	2
43	38
44	15
45	65
46	5
47	2
50	1
51	4
52	3
53	10
54	2
55	10
56	1
57	7
58	10
59	83
60	7
61	3
62	0
63	0
65	3
66	2
67	5
68	1
69	7
70	4
71	5
72	11
73	999
74	73
75	32
76	1
77	10
78	4
79	31
80	80
81	9
82	0
83	5
84	0
85	3
86	0
91	1
92	0
93	1
94	0
95	5
96	1
97	5
98	0
99	1
100	0
103	0
105	0
106	0
107	1
109	2
110	0
111	0
113	0
121	0
123	1
124	0
125	0
135	0
137	3
138	0
139	36
140	5
141	1
152	0
153	0
154	91
155	14
156	4
157	0
