Mass Spectrum: 2-Benzoyl-6-nitrobenzoic acid, methyl ester
Formula: C15H11NO5
CAS: 7531-38-6
Molecular weight: 285
m/z	intensity
25	0
26	4
27	14
29	68
30	26
31	14
33	1
36	0
37	2
38	4
39	17
40	2
41	23
42	5
43	26
44	17
45	1
46	1
48	0
49	1
50	30
51	105
52	9
53	6
54	2
55	23
56	11
57	37
58	2
59	10
60	1
61	1
62	6
63	19
64	4
65	9
66	2
67	8
68	4
69	18
70	9
71	20
72	1
73	2
74	23
75	57
76	65
77	432
78	35
79	5
80	2
81	9
82	7
83	13
84	6
85	12
86	3
87	4
88	2
89	5
90	3
91	13
92	6
93	4
94	2
95	7
96	4
97	12
98	5
99	6
100	2
101	2
102	4
103	8
104	85
105	999
106	83
107	7
108	2
109	5
110	5
111	7
112	3
113	4
114	2
115	5
116	1
117	1
118	3
119	10
120	13
121	3
122	2
123	4
124	2
125	5
126	10
127	9
128	3
129	2
130	1
131	1
132	24
133	5
134	1
135	4
136	1
137	2
138	2
139	13
140	7
141	9
142	4
143	4
144	1
145	1
146	1
147	1
148	2
149	23
150	16
151	37
152	56
153	12
154	3
155	4
156	1
157	1
158	0
159	0
160	1
161	2
162	5
163	2
164	1
165	5
166	3
167	6
168	14
169	4
170	1
171	1
172	4
173	1
174	0
175	0
176	0
177	4
178	8
179	19
180	36
181	10
182	3
183	1
191	1
192	12
193	3
194	3
195	5
196	10
197	4
198	1
199	0
207	12
208	156
209	23
210	5
211	4
212	1
213	0
214	0
215	0
216	0
217	1
218	0
219	0
220	1
221	2
222	15
223	16
224	16
225	5
226	7
227	2
228	0
229	0
230	0
231	0
232	0
233	0
234	0
235	2
236	2
237	2
238	2
239	2
240	1
241	1
242	0
243	0
244	1
245	1
246	0
247	0
248	0
249	0
250	1
251	0
252	1
253	16
254	109
255	31
256	5
257	2
258	0
259	0
260	1
261	0
262	1
263	0
264	1
265	0
266	0
267	3
268	4
269	5
270	2
285	101
286	18
287	2
