Mass Spectrum: 2,4-Dinitro-4'-aminodiphenylsulFoxide
Formula: C12H9N3O5S
CAS: 75317-02-1
Molecular weight: 307
m/z	intensity
28	196
29	94
30	367
31	23
32	192
33	15
34	37
36	30
38	39
39	162
40	110
41	116
42	62
43	125
44	376
45	83
46	23
48	252
50	147
51	109
52	104
53	102
54	82
55	104
56	52
57	111
58	19
59	12
60	79
61	27
62	16
63	123
64	645
65	460
66	360
67	103
68	51
69	87
70	51
71	88
72	15
73	82
74	43
75	266
76	333
77	142
78	77
79	85
80	246
81	134
82	62
83	78
84	52
85	63
89	15
90	37
91	123
92	587
93	999
94	124
95	69
96	54
97	96
98	55
99	40
100	12
101	23
102	18
103	17
104	19
105	37
106	27
107	80
108	334
109	185
110	58
111	47
112	33
113	30
114	21
115	47
116	24
117	27
118	16
119	27
120	20
121	34
122	204
123	70
124	87
125	204
126	43
127	68
128	38
129	75
130	23
131	20
132	12
135	27
136	20
137	39
138	472
139	126
140	340
141	71
142	39
143	31
144	16
145	28
147	16
149	32
150	22
151	23
152	69
153	69
154	100
155	60
156	38
157	44
158	17
159	15
163	14
164	22
165	34
166	139
167	153
168	616
169	97
170	38
171	53
172	20
173	19
178	12
179	58
180	56
181	93
182	99
183	114
184	68
185	50
186	31
187	15
195	31
196	114
197	80
198	64
199	79
200	32
211	19
212	60
213	61
214	67
215	31
216	54
217	16
218	91
219	18
220	12
225	39
226	38
227	27
228	33
229	112
230	34
231	39
232	13
239	18
241	20
242	63
243	31
244	14
255	15
256	27
257	17
258	14
259	560
260	94
261	88
262	22
263	30
264	23
275	15
276	11
277	42
278	12
289	23
291	61
292	12
293	39
307	80
308	20
