Mass Spectrum: L-Prolinamide
Formula: C5H10N2O
CAS: 7531-52-4
Molecular weight: 114
m/z	intensity
41	177
43	134
44	296
45	13
46	1
50	1
51	2
52	4
53	8
54	8
55	8
56	4
57	4
58	1
59	1
60	1
63	0
64	0
65	1
66	2
67	10
68	133
69	2
70	999
71	49
72	2
73	1
77	1
78	2
82	2
83	1
84	14
85	6
86	4
95	1
96	3
97	2
112	1
113	6
114	42
115	2
