Mass Spectrum: 6-[[4-Chlorophenyl]thio]-N,N-dimethyl-1,2,4,5-tetrazin-3-amine
Formula: C10H10ClN5S
CAS: 75328-95-9
Molecular weight: 267
m/z	intensity
41	51
42	237
43	34
44	19
45	54
46	1
47	29
48	12
49	103
50	144
51	78
52	2
53	85
54	23
55	27
56	12
57	18
58	26
59	5
60	5
61	20
62	26
63	86
64	12
65	2
67	13
69	999
70	951
71	45
72	99
73	47
74	73
75	264
76	42
77	3
79	21
80	14
81	37
82	35
83	10
84	67
85	33
86	38
87	11
88	9
89	1
90	25
91	2
92	2
93	7
94	4
95	3
96	4
97	3
98	1
99	39
100	4
101	13
102	5
103	2
105	4
106	7
107	26
108	115
109	21
110	10
111	113
112	9
113	36
114	2
115	0
116	1
117	0
118	13
119	1
120	7
121	0
124	2
125	42
126	2
127	13
128	1
129	4
130	3
131	0
133	37
134	150
135	13
136	7
137	12
138	0
139	4
142	40
143	41
144	22
145	15
146	3
147	0
155	1
157	1
159	2
161	0
167	7
168	0
169	636
170	55
171	231
172	20
173	10
174	0
175	0
214	0
267	99
268	13
269	36
270	5
271	4
