Mass Spectrum: N-(5-Pyrrolidinopent-3-ynyl)-succinimide, N'-oxide
Formula: C13H18N2O3
CAS: 75322-96-2
Molecular weight: 250
m/z	intensity
39	72
40	50
41	424
42	190
43	27
44	93
54	38
55	999
56	104
68	126
69	246
70	36
82	427
83	51
84	62
98	54
99	12
100	54
112	53
126	86
153	45
154	21
181	70
182	14
233	1
250	1
