Mass Spectrum: 2-Cyclopentene-1-acetaldehyde, 2-formyl-.alpha.,3-dimethyl-
Formula: C10H14O2
CAS: 75332-42-2
Molecular weight: 166
m/z	intensity
51	90
53	150
55	80
65	120
67	150
77	270
78	80
79	510
80	160
81	999
82	80
91	230
93	100
95	130
96	20
105	200
107	110
108	270
109	400
120	50
136	20
138	130
148	150
166	30
