Mass Spectrum: iso-Bornyl methacrylate
Formula: C14H22O2
CAS: 7534-94-3
Molecular weight: 222
m/z	intensity
13	1
14	1
15	17
18	3
26	5
27	105
28	22
29	119
30	3
31	6
36	1
37	4
38	14
39	292
40	81
41	999
42	51
43	183
44	7
45	8
50	3
51	20
52	10
53	84
54	17
55	190
56	14
57	45
58	4
59	10
63	4
65	36
66	13
67	150
68	66
69	846
70	81
71	21
73	1
77	71
78	14
79	87
80	68
81	112
82	26
83	44
85	3
87	4
88	1
91	65
92	87
93	295
94	55
95	456
96	39
97	24
98	2
103	3
104	2
105	21
107	89
108	187
109	267
110	126
111	29
112	5
113	1
119	8
121	257
122	24
123	9
124	3
125	2
133	2
134	4
135	38
136	518
137	78
138	6
139	2
149	1
150	1
151	9
152	6
153	20
154	2
179	30
180	3
194	6
207	4
222	28
223	4
