Mass Spectrum: 3-Acetonylcyclopentanone
Formula: C8H12O2
CAS: 75359-72-7
Molecular weight: 140
m/z	intensity
26	17
27	83
28	32
29	62
31	8
37	2
38	10
39	106
40	20
41	165
42	43
43	999
44	27
45	21
50	8
51	12
52	9
53	33
54	43
55	151
56	35
57	69
58	198
59	25
65	5
66	3
67	21
68	10
69	62
70	21
71	9
73	7
77	5
79	14
80	8
81	17
82	391
83	422
84	42
85	15
87	1
89	4
95	11
96	17
97	40
98	15
99	3
107	2
111	22
112	41
113	28
123	4
125	16
139	2
140	6
