Mass Spectrum: Disilane, 1,1,2,2-tetraethyl-
Formula: C8H22Si2
CAS: 7535-09-3
Molecular weight: 174
m/z	intensity
25	17
27	42
29	120
30	18
31	247
33	9
39	7
40	4
41	2
42	10
43	170
44	21
45	82
46	5
47	3
52	1
53	29
54	10
55	88
56	60
57	295
58	708
59	904
60	110
61	110
62	14
63	6
66	1
67	5
68	6
69	40
70	13
71	32
72	10
73	27
74	9
75	15
76	4
77	2
80	1
81	19
82	5
83	31
84	18
85	85
86	999
87	864
88	195
89	498
90	71
91	35
92	2
93	1
94	6
95	1
99	4
101	9
102	3
103	14
104	2
105	1
110	1
111	1
112	1
113	5
114	36
115	183
116	107
117	422
118	68
119	34
120	2
121	5
122	1
129	1
131	2
143	1
144	38
145	244
146	50
147	20
148	2
172	2
173	16
174	343
175	71
176	30
177	3
