Mass Spectrum: D-Mannitol, 1-deoxy-3,5-di-O-methyl-, triacetate
Formula: C14H24O8
CAS: 75363-16-5
Molecular weight: 320
m/z	intensity
28	260
43	999
44	140
45	160
58	160
71	120
72	160
85	130
89	400
99	250
101	480
113	140
117	740
127	210
131	710
141	100
159	100
161	130
173	160
187	120
201	180
233	480
320	50
