Mass Spectrum: Cyclopenta[c]pyran-3(4H)-one, 4a,5-dihydro-4,7-dimethyl-
Formula: C10H12O2
CAS: 75364-51-1
Molecular weight: 164
m/z	intensity
51	130
65	160
77	470
78	140
79	999
80	760
91	470
93	390
105	120
106	150
107	550
108	120
121	350
136	220
164	660
