Mass Spectrum: L-Aspartic acid, N-[(1,1-dimethylethoxy)carbonyl]-, 4-(phenylmethyl) ester
Formula: C16H21NO6
CAS: 7536-58-5
Molecular weight: 323
m/z	intensity
12	2
13	1
14	5
15	24
16	3
17	1
18	4
25	1
26	13
27	55
28	60
29	74
30	4
31	36
36	1
37	6
38	15
39	109
40	22
41	184
42	36
43	115
44	30
45	13
46	6
49	3
50	25
51	60
52	16
53	11
54	7
55	16
56	33
57	538
58	27
59	141
60	6
61	2
62	9
63	30
64	9
65	124
66	8
67	1
68	3
69	8
70	37
71	12
72	12
73	3
74	15
75	5
76	5
77	75
78	23
79	79
80	8
81	1
83	1
84	1
85	1
86	7
87	21
88	59
89	80
90	67
91	999
92	93
93	5
96	4
97	1
98	2
99	9
100	4
101	2
103	1
104	2
105	22
106	8
107	154
108	200
109	15
110	1
114	16
115	7
116	4
117	3
118	4
119	2
121	2
130	1
131	1
132	91
133	22
134	3
135	1
142	6
143	1
144	5
145	1
149	5
150	2
151	1
159	1
160	25
161	2
162	23
163	3
164	1
165	1
176	1
177	3
178	185
179	22
180	4
181	2
188	1
193	1
195	2
206	3
221	8
222	61
223	52
224	13
225	2
234	3
239	1
249	21
250	9
251	2
264	1
267	109
268	15
269	3
278	13
279	3
