Mass Spectrum: 2(E),4-Pentadienamide, N-[1-(dimethylamino)-2-methyl-2-propenylidene]-4-methyl-
Formula: C12H18N2O
CAS: 75378-94-8
Molecular weight: 206
m/z	intensity
41	720
42	240
44	310
67	999
68	370
70	290
82	200
95	940
96	200
98	150
111	180
120	110
139	470
163	240
191	230
206	530
