Mass Spectrum: 2,4-Hexadienamide, N-[1-(dimethylamino)-2-methyl-2-propenylidene]-
Formula: C12H18N2O
CAS: 75378-92-6
Molecular weight: 206
m/z	intensity
41	850
42	440
44	480
67	650
68	400
70	450
82	150
95	999
96	130
98	140
111	120
113	110
139	920
163	70
191	150
206	560
