Mass Spectrum: 1H-Isoindol-1-one, 3-(dimethylamino)-3a,4,5,7a-tetrahydro-3a-methyl-
Formula: C11H16N2O
CAS: 75378-97-1
Molecular weight: 192
m/z	intensity
70	999
77	470
79	640
83	250
91	260
93	180
94	470
99	680
122	150
123	170
135	100
137	100
149	220
163	100
177	730
192	770
