Mass Spectrum: (2-Butenyl)succinic anhydride
Formula: C8H10O3
CAS: 7538-42-3
Molecular weight: 154
m/z	intensity
14	3
15	10
25	1
26	31
27	238
28	60
29	132
30	3
31	2
37	9
38	31
39	321
40	69
41	294
42	54
43	47
44	13
45	9
47	1
48	1
49	5
50	35
51	53
52	32
53	130
54	243
55	738
56	62
57	11
58	3
60	10
61	6
62	6
63	12
64	2
65	47
66	60
67	999
68	107
69	35
70	10
71	14
72	79
73	9
74	5
75	1
77	23
78	7
79	84
80	51
81	241
82	242
83	36
84	66
85	7
86	2
90	1
91	12
92	10
93	4
94	166
95	130
96	9
97	588
98	35
99	117
100	407
101	19
102	2
107	11
108	182
109	391
110	35
111	51
112	269
113	21
114	2
118	3
120	2
121	1
123	1
125	3
126	123
127	9
128	1
135	1
136	207
137	28
138	2
139	7
140	1
153	1
154	396
155	40
156	4
