Mass Spectrum: Tris(trifluoromethyl) bromomethane
Formula: C4BrF9
CAS: 754-43-8
Molecular weight: 298
m/z	intensity
50	36
62	9
69	999
70	22
74	11
79	37
81	51
91	7
93	81
100	87
112	60
129	24
131	239
132	6
141	5
143	5
150	32
181	27
191	20
193	17
210	12
212	11
279	2
281	2
298	4
300	3
