Mass Spectrum: Di(isopropyl) disulfide, perfluoro-
Formula: C6F14S2
CAS: 754-62-1
Molecular weight: 402
m/z	intensity
63	280
64	999
66	86
69	927
82	14
83	17
94	26
100	64
101	11
113	310
114	12
115	10
131	12
132	76
145	13
151	12
164	62
195	16
201	14
214	11
233	146
234	7
235	12
402	5
