Mass Spectrum: 4-Bromopentanoic acid, methyl ester
Formula: C6H11BrO2
CAS: 75411-76-6
Molecular weight: 194
m/z	intensity
25	6
26	56
27	314
28	118
29	278
30	29
31	51
33	7
36	3
37	24
38	38
39	217
40	43
41	280
42	155
43	285
44	38
45	79
46	4
47	2
49	7
50	43
51	44
52	18
53	88
54	54
55	999
56	132
57	32
58	5
59	513
60	36
61	7
62	2
63	2
65	2
66	2
67	4
68	6
69	8
70	2
71	36
72	17
73	630
74	885
75	51
76	7
77	2
78	1
79	11
80	8
81	32
82	40
83	414
84	34
85	28
86	2
87	17
88	2
91	2
92	1
93	10
94	16
95	10
96	16
97	4
98	1
99	9
100	4
101	1
102	1
104	1
105	4
106	4
107	48
108	4
109	42
110	2
111	1
113	5
114	16
115	944
116	86
117	10
118	1
119	5
120	8
121	12
122	8
123	9
124	2
129	1
130	1
132	1
133	4
134	3
135	28
136	4
137	28
138	2
139	3
162	10
163	179
164	23
165	172
166	14
167	1
194	32
195	3
196	31
197	3
