Mass Spectrum: 2-Nitroso-2-phenylacetonitrile
Formula: C8H6N2O
CAS: 7541-03-9
Molecular weight: 146
m/z	intensity
26	35
27	27
30	75
34	5
37	102
38	171
39	294
40	97
41	41
42	6
43	18
44	39
45	2
50	389
51	591
52	89
53	38
54	6
55	11
56	2
57	4
61	61
62	122
63	204
64	102
65	77
66	40
67	4
68	3
69	5
73	27
74	89
75	113
76	163
77	260
78	122
79	9
82	2
85	8
86	17
87	40
89	999
90	95
91	43
92	9
93	4
94	9
98	2
99	7
100	6
101	13
102	34
103	72
104	9
105	1
111	3
112	2
114	41
116	766
117	69
119	54
120	3
129	11
130	5
146	412
147	38
148	2
