Mass Spectrum: Benzenesulfonamide, N-[3-[(3-aminopropyl)[(4-methylphenyl)sulfonyl]amino]propyl]-4-methyl-N-[3-[[(4-methylphenyl)sulfonyl][3-[[(4-methylphenyl)sulfonyl][3-(2-oxoazacyclotridec-1-yl)propyl]amino]propyl]amino]propyl]-
Formula: C55H82N6O9S4
CAS: 75422-09-2
Molecular weight: 1098
m/z	intensity
91	999
113	110
124	180
155	370
198	210
210	150
224	150
238	370
255	80
267	510
281	170
293	250
324	80
409	30
421	20
464	30
466	40
478	150
504	50
535	40
651	20
689	30
715	30
746	60
786	10
831	10
888	10
900	5
914	30
926	8
943	10
983	4
1098	1
