Mass Spectrum: 13,17,21,25,29-Pentaacetyl-13,17,21,25,29-pentaaza-32-dotriacontanolactam
Formula: C37H68N6O6
CAS: 75422-13-8
Molecular weight: 692
m/z	intensity
70	540
84	350
100	999
114	290
126	250
140	200
143	160
155	250
157	150
169	460
183	250
194	150
198	250
280	130
297	200
298	160
396	200
422	120
451	130
465	120
495	180
550	110
564	180
594	60
606	100
607	100
649	620
692	60
