Mass Spectrum: 1H-Isoindole-1,3(2H)-dione, 2-(3-azatricyclo[3.2.1.0(2,4)]oct-6-en-3-yl)-
Formula: C15H12N2O2
CAS: 75442-61-4
Molecular weight: 252
m/z	intensity
50	190
76	500
77	330
78	660
79	330
91	999
104	999
105	960
106	700
130	660
148	940
225	380
251	200
252	230
