Mass Spectrum: Benzenesulfonamide, N-(3-bromopropyl)-N-[3-(1,3-dihydro-1,3-dioxo-2H-isoindol-2-yl)propyl]-4-methyl-
Formula: C21H23BrN2O4S
CAS: 75444-62-1
Molecular weight: 478
m/z	intensity
70	100
91	999
96	390
130	100
155	670
160	360
176	200
178	200
184	140
188	200
198	100
201	50
219	50
224	60
243	420
304	30
306	30
323	190
325	190
371	20
