Mass Spectrum: .beta.,.beta.-Carotene, 5,6-dihydro-5,6-dihydroxy-
Formula: C40H58O2
CAS: 75442-63-6
Molecular weight: 570
m/z	intensity
43	980
55	520
69	999
91	410
105	440
109	460
119	400
127	150
133	240
145	250
335	30
478	30
552	20
570	430
