Mass Spectrum: 3-(p-Chlorophenyl)-4-methyl-4-(p-chlorophenylazo)pentan-2-one
Formula: C18H18Cl2N2O
CAS: 75478-75-0
Molecular weight: 348
m/z	intensity
39	20
41	18
43	999
44	18
50	17
51	14
53	4
65	3
75	40
76	8
77	12
85	4
89	13
90	5
91	9
103	6
111	36
112	4
113	11
115	15
116	9
125	8
127	4
129	4
131	8
139	13
140	5
141	4
151	4
165	5
208	17
210	5
348	3
