Mass Spectrum: Acetophenone 4-hexamethylenethiosemicarbazone
Formula: C15H21N3S
CAS: 75488-62-9
Molecular weight: 275
m/z	intensity
41	380
42	313
43	240
44	191
45	27
47	25
49	75
50	59
51	263
52	36
53	61
55	609
56	235
57	111
58	20
59	25
60	98
61	10
62	19
63	29
64	22
65	54
66	14
67	7
68	461
69	236
70	218
72	213
73	20
74	41
75	24
76	9
77	672
78	114
79	33
81	91
82	120
83	84
84	88
86	87
87	13
88	14
89	24
90	2
91	61
92	35
93	2
94	22
96	78
97	558
98	999
99	43
100	17
101	21
102	46
103	137
104	265
105	121
106	15
107	3
108	9
109	54
110	15
111	8
113	26
114	15
115	20
116	16
117	4
118	218
120	696
121	80
123	137
124	0
125	43
126	22
127	10
128	18
129	6
130	29
131	6
132	1
133	42
134	15
135	5
136	7
138	27
139	3
140	8
142	257
143	27
144	25
145	5
146	7
147	2
148	8
149	44
150	45
151	20
152	4
153	1
154	1
155	11
156	58
157	145
158	21
159	14
160	11
161	4
162	3
163	2
165	3
166	8
167	1
168	1
169	1
170	7
171	4
172	22
173	6
174	1
176	77
177	47
178	14
179	3
180	1
182	18
183	2
184	7
185	6
186	11
187	2
188	1
189	2
190	3
192	6
194	2
196	2
198	61
199	10
200	5
201	1
202	2
203	0
204	2
205	2
206	2
207	0
209	0
210	1
212	14
213	3
214	0
215	31
216	5
217	3
218	7
219	1
220	0
221	0
224	1
225	1
226	7
227	1
228	1
230	1
231	6
232	3
233	1
234	0
236	0
238	0
240	7
241	25
242	47
244	12
245	1
246	1
247	58
248	8
249	3
250	0
256	7
257	2
258	3
259	1
260	402
261	64
262	22
263	3
264	0
266	0
268	0
272	2
273	2
274	2
275	640
276	119
277	38
278	6
