Mass Spectrum: Heptafluorobutyric acid, 2-butyl ester
Formula: C8H9F7O2
CAS: 755-66-8
Molecular weight: 270
m/z	intensity
26	43
27	232
28	75
29	525
30	15
31	125
33	4
35	4
36	2
37	4
38	4
39	146
40	18
41	687
42	49
43	155
44	46
45	295
46	4
47	69
50	31
51	11
52	2
53	8
54	6
55	106
56	208
57	999
58	45
59	68
61	31
62	2
63	4
66	4
69	397
70	4
71	4
73	4
74	2
75	2
77	2
78	7
81	2
93	4
100	81
101	2
109	18
117	18
119	59
131	2
147	2
150	4
169	295
170	6
178	2
197	41
198	1
213	98
214	2
240	16
241	225
242	18
255	24
256	1
