Mass Spectrum: 5-Fluoro-1,3-bis[phenylmethyl]-2,4(1H,3H)-pyrimidinedione
Formula: C18H15FN2O2
CAS: 75500-02-6
Molecular weight: 310
m/z	intensity
41	6
49	2
50	6
51	25
52	5
56	2
58	10
62	3
63	19
64	4
65	95
66	5
70	3
71	3
75	5
76	4
77	35
78	13
79	7
84	5
85	2
86	8
87	3
88	3
89	31
90	13
91	999
92	77
93	2
95	2
100	3
101	13
102	3
103	5
104	20
105	7
106	18
107	24
108	3
109	6
113	5
114	139
115	7
116	6
117	2
120	3
121	4
128	8
129	3
130	2
132	41
133	8
135	3
136	2
146	3
147	3
148	16
149	8
165	3
167	5
174	3
175	3
176	160
177	19
178	7
179	7
180	28
181	34
182	4
203	2
204	2
219	327
220	31
221	4
232	3
293	5
309	4
310	803
311	166
312	21
