Mass Spectrum: s-Triazine, 2,4-bis(1-aziridinyl)-6-chloro-
Formula: C7H8ClN5
CAS: 75505-74-7
Molecular weight: 197
m/z	intensity
33	11
35	5
36	11
37	1
38	12
39	22
40	149
42	999
43	45
44	9
45	1
47	0
49	11
51	8
52	15
53	82
54	88
55	86
56	13
57	3
61	2
62	20
63	38
64	12
65	5
66	17
67	63
68	130
69	129
70	6
75	46
76	10
77	15
78	13
80	43
81	35
82	21
83	4
84	3
86	5
87	137
89	57
90	5
91	12
92	1
93	23
94	70
95	12
96	0
101	6
103	18
104	6
105	16
106	2
107	32
108	29
109	4
114	1
115	35
116	41
117	18
118	13
119	4
120	1
121	7
128	16
129	4
130	22
131	5
132	1
133	4
135	55
136	3
142	49
143	25
144	17
145	11
147	1
153	0
155	6
156	6
158	5
160	31
161	3
162	3
166	3
168	8
169	46
170	38
171	21
172	18
173	1
182	6
184	10
196	292
197	216
198	97
199	65
200	5
