Mass Spectrum: Methyl 11-methoxy-3,7,11-trimethyl-10-(pentafluoropropionyloxy)-2,6-dodecadienoate
Formula: C20H29F5O5
CAS: 75517-06-5
Molecular weight: 444
m/z	intensity
73	999
81	800
93	180
107	120
114	240
121	80
135	240
189	40
194	30
248	40
280	50
353	5
384	3
385	3
412	4
444	10
