Mass Spectrum: Methyl 11-methoxy-3,7,11-trimethyl-10-(pentadecafluorooctanoyloxy)-2,6-dodecadienoate
Formula: C25H29F15O5
CAS: 75517-07-6
Molecular weight: 694
m/z	intensity
73	999
81	760
93	220
99	120
107	150
114	280
121	100
135	360
139	40
162	40
189	70
194	40
248	60
280	5
549	3
603	4
634	2
635	3
662	5
675	2
694	20
