Mass Spectrum: 2,6-Dodecadienoic acid, 10-(bromoacetoxy)-11-methoxy-3,7,11-trimethyl-, methyl ester
Formula: C19H31BrO5
CAS: 75517-10-1
Molecular weight: 418
m/z	intensity
73	999
81	300
114	40
121	30
135	140
248	20
273	5
275	5
280	3
305	2
307	2
386	2
388	2
418	2
420	2
