Mass Spectrum: Methyl 10-(chloroacetoxy)-11-methoxy-3,7,11-trimethyl-2,6-dodecadienoate
Formula: C19H31ClO5
CAS: 75517-08-7
Molecular weight: 374
m/z	intensity
73	999
81	340
93	60
99	60
114	60
121	40
135	200
194	70
248	20
261	5
263	2
280	2
342	3
344	2
374	3
376	2
