Mass Spectrum: 2H-Pyran, tetrahydro-2-[(phenylseleno)methyl]-
Formula: C12H16OSe
CAS: 75526-73-7
Molecular weight: 256
m/z	intensity
26	29
27	213
28	102
29	274
30	6
31	50
37	4
38	15
39	175
40	28
41	350
42	32
43	337
44	14
45	8
49	5
50	69
51	156
52	17
53	33
54	12
55	123
56	23
57	177
58	10
59	1
61	1
62	4
63	12
64	2
65	48
66	6
67	163
68	12
69	18
70	6
71	2
73	3
74	20
75	21
76	18
77	165
78	73
79	22
80	4
81	25
82	3
83	11
84	5
85	999
86	50
87	2
89	8
90	7
91	158
92	17
93	40
94	6
95	9
96	2
97	17
98	56
99	90
100	7
101	1
102	2
103	5
104	6
105	12
106	6
107	7
108	2
109	2
111	1
113	5
114	6
115	14
116	6
117	28
118	4
119	8
120	2
121	2
122	1
123	2
125	1
126	2
127	3
128	8
129	8
130	9
131	11
132	3
133	3
135	2
141	2
143	1
145	2
147	1
149	1
150	1
151	3
152	4
153	36
154	35
155	74
156	41
157	164
158	48
159	32
160	7
161	1
165	1
166	4
167	9
168	42
169	48
170	87
171	47
172	178
173	19
174	35
175	4
176	2
177	1
178	5
179	1
180	3
181	2
182	1
183	6
184	2
185	2
193	1
195	1
196	2
197	1
198	5
200	6
201	1
202	2
211	1
250	6
252	46
253	48
254	166
255	19
256	267
257	46
258	60
259	8
