Mass Spectrum: [1,3]Diazepan-2,4-dione
Formula: C5H8N2O2
CAS: 75548-99-1
Molecular weight: 128
m/z	intensity
25	4
26	42
27	100
28	265
29	103
30	256
31	9
36	3
37	8
38	14
39	85
40	59
41	272
42	362
43	198
44	264
45	16
47	4
48	2
49	2
50	3
51	6
52	15
53	10
54	25
55	66
56	234
57	253
58	41
59	8
66	5
67	5
68	9
69	27
70	14
71	10
72	5
73	48
74	3
77	3
78	3
79	2
80	2
81	4
82	6
83	22
84	355
85	999
86	67
87	12
88	2
91	3
93	2
94	2
95	3
96	3
97	7
98	3
99	4
100	32
101	3
104	2
105	3
109	3
110	4
111	5
112	11
113	3
125	3
126	2
127	3
128	726
129	70
130	8
131	2
