Mass Spectrum: Cholest-5-ene-16,22-dione, 3,26-bis(acetyloxy)-, (3.beta.,25R)-
Formula: C31H46O6
CAS: 7554-95-2
Molecular weight: 514
m/z	intensity
41	166
43	999
44	12
45	30
47	0
49	2
50	0
51	4
53	33
55	253
56	39
57	20
58	2
59	2
61	13
63	2
65	15
67	74
69	289
70	17
71	11
73	92
74	2
75	0
77	23
79	51
80	0
81	117
82	21
83	22
84	18
85	16
86	1
91	86
92	2
93	91
94	10
95	70
97	177
98	8
99	6
101	1
103	9
105	143
106	2
107	58
108	13
109	19
110	3
111	7
113	8
115	871
116	56
117	25
118	3
119	35
120	45
121	30
122	8
123	13
124	9
125	12
126	4
127	3
128	9
129	18
130	3
131	42
132	8
133	50
134	1
135	31
136	5
137	4
139	4
141	11
142	1
143	47
144	2
145	82
146	16
147	18
148	8
149	5
150	0
151	2
152	0
153	4
155	15
156	7
157	55
158	26
159	21
160	7
161	8
162	4
163	7
165	6
166	4
167	4
169	8
170	1
171	21
172	11
173	18
174	6
175	8
176	1
177	5
178	0
179	2
180	0
181	5
183	12
184	0
185	19
186	5
187	6
188	1
189	1
190	5
191	3
193	1
195	6
196	0
197	19
198	21
199	14
200	3
201	2
203	2
205	0
207	1
209	3
211	14
212	2
213	81
214	46
215	10
216	2
217	1
219	1
223	10
224	0
225	8
226	6
227	6
228	0
229	5
231	1
233	2
235	2
237	3
239	5
240	1
241	0
249	1
250	1
251	4
252	0
253	3
254	11
255	6
256	1
263	1
265	23
266	5
267	1
268	4
269	2
270	1
279	1
280	53
281	11
283	41
284	7
285	0
286	0
287	1
296	1
297	143
298	100
299	5
300	1
307	2
314	0
318	0
325	94
326	17
327	2
340	6
341	1
343	16
344	1
353	1
357	38
358	8
359	0
361	0
376	4
377	0
379	11
380	0
382	0
385	27
386	5
393	4
394	198
395	69
396	9
400	0
408	0
411	1
413	1
430	1
436	20
437	7
439	7
440	1
441	3
442	0
452	0
453	2
454	54
455	32
456	5
497	1
498	0
499	2
500	0
514	4
515	1
