Mass Spectrum: 1H-Pyrazole, 4-ethyl-3,5-dimethyl-
Formula: C7H12N2
CAS: 7554-67-8
Molecular weight: 124
m/z	intensity
27	84
28	46
29	21
30	12
31	0
37	7
38	22
39	148
40	37
41	140
42	335
43	12
44	0
47	0
49	0
50	15
51	32
52	53
53	46
54	23
55	22
56	10
57	3
60	0
61	2
62	8
63	20
64	7
65	27
66	28
67	26
68	254
69	17
70	1
74	0
75	0
76	0
77	13
78	4
79	12
80	18
81	14
82	25
83	4
91	2
92	0
93	2
94	3
95	31
96	28
97	2
105	0
106	0
107	7
108	18
109	999
110	62
111	1
121	4
122	1
123	24
124	220
125	23
126	0
