Mass Spectrum: l-Histidine, ethyl ester
Formula: C8H13N3O2
CAS: 7555-06-8
Molecular weight: 183
m/z	intensity
29	158
30	38
39	19
40	19
41	41
42	49
43	41
44	5
45	5
46	19
52	21
53	5
54	101
55	71
56	60
57	19
58	8
66	21
67	21
68	8
69	27
70	8
71	8
74	101
78	8
79	19
81	241
82	999
83	131
84	19
93	27
94	19
98	5
102	49
108	5
109	41
110	405
111	41
138	18
183	10
