Mass Spectrum: 2,6-Dioxatricyclo[3.3.2.0(3,7)]decan-9-ol
Formula: C8H12O3
CAS: 75568-73-9
Molecular weight: 156
m/z	intensity
26	28
27	387
28	33
29	471
30	21
31	144
38	30
39	397
40	70
41	454
42	148
43	487
44	130
45	264
46	9
50	28
51	54
52	17
53	177
54	128
55	999
56	421
57	344
58	83
59	27
60	17
62	11
63	13
64	12
65	47
66	116
67	192
68	789
69	378
70	410
71	378
72	30
73	115
74	8
75	20
76	10
77	38
78	15
79	70
80	29
81	236
82	278
83	600
84	459
85	81
86	72
87	378
88	65
89	13
90	10
91	35
92	13
93	18
94	46
95	122
96	34
97	40
98	16
99	40
100	24
101	70
102	13
104	10
105	15
106	12
107	12
108	18
109	46
110	47
111	336
112	143
113	90
114	12
115	24
121	14
122	9
123	20
125	13
126	86
127	18
128	31
137	15
138	71
139	43
155	52
156	747
157	83
158	8
