Mass Spectrum: 2,6-Dioxa-tricyclo[3.3.2.0(3,7)]dec-9-ene
Formula: C8H10O2
CAS: 75568-75-1
Molecular weight: 138
m/z	intensity
26	27
27	242
28	104
29	145
30	5
31	25
37	10
38	38
39	368
40	57
41	401
42	45
43	99
44	90
45	5
49	2
50	32
51	70
52	34
53	284
54	151
55	182
56	19
57	21
60	8
61	5
62	9
63	22
64	6
65	99
66	139
67	286
68	150
69	61
70	40
71	19
74	5
75	4
76	3
77	120
78	34
79	514
80	53
81	999
82	122
83	32
84	69
85	5
89	2
90	2
91	139
92	73
93	18
94	369
95	177
96	36
97	6
105	3
106	3
107	18
108	29
109	540
110	70
111	8
119	4
120	33
121	7
122	2
123	4
137	5
138	676
139	55
140	5
