Mass Spectrum: 1,3,5-Cycloheptatriene, 7,7-dimethyl-
Formula: C9H12
CAS: 7557-11-1
Molecular weight: 120
m/z	intensity
25	0
26	12
27	109
28	4
29	9
31	0
34	0
36	0
37	8
38	33
39	232
40	25
41	90
42	9
43	1
44	0
45	0
46	0
49	4
50	76
51	186
52	69
53	39
54	2
55	1
56	0
58	12
59	3
61	6
62	22
63	67
64	11
65	57
66	8
67	2
68	0
69	0
73	2
74	16
75	12
76	16
77	270
78	145
79	316
80	19
81	0
82	0
83	0
84	0
85	2
86	3
87	2
88	0
89	17
90	5
91	117
92	11
93	2
94	0
96	0
97	0
98	1
101	1
102	12
103	108
104	26
105	999
106	75
107	4
115	8
116	1
117	4
118	1
119	10
120	77
121	7
122	1
