Mass Spectrum: 4-Methyl-.beta.-nitrostyrene
Formula: C9H9NO2
CAS: 7559-36-6
Molecular weight: 163
m/z	intensity
15	1
26	8
27	47
29	2
30	49
37	8
38	27
39	190
40	18
41	43
42	3
43	16
44	2
46	21
49	4
50	91
51	148
52	42
53	31
54	7
55	10
56	1
57	24
60	1
61	18
62	70
63	182
64	39
65	265
66	35
67	28
68	8
69	5
73	4
74	41
75	55
76	41
77	183
78	62
79	221
80	120
81	12
82	7
83	2
84	1
85	7
86	21
87	27
88	14
89	172
90	54
91	480
92	88
93	18
94	8
95	8
96	41
97	3
98	6
99	3
100	1
101	31
102	125
103	110
104	53
105	377
106	112
107	51
108	26
109	4
110	6
111	1
113	13
114	17
115	999
116	441
117	88
118	108
119	76
120	47
121	11
122	2
128	3
129	1
130	30
131	36
132	51
133	48
134	26
135	15
136	2
144	1
145	3
146	164
147	21
148	108
149	10
161	2
162	14
163	342
164	36
165	3
