Mass Spectrum: Benzene, 1-(2-bromo-2-nitroethenyl)-3-nitro-
Formula: C8H5BrN2O4
CAS: 7559-39-9
Molecular weight: 272
m/z	intensity
33	16
34	11
35	0
37	78
38	117
39	203
40	151
41	15
42	9
43	29
44	43
46	146
50	467
51	469
52	40
53	16
55	29
57	9
58	0
61	91
62	174
63	256
64	55
65	25
66	7
67	5
68	5
69	11
70	4
71	14
74	400
75	701
76	108
77	46
79	94
80	47
81	32
82	37
83	12
84	4
85	13
86	23
87	36
89	505
90	63
91	47
92	19
93	6
94	2
95	6
96	3
97	11
98	66
99	66
101	999
102	83
103	10
104	13
105	46
106	9
107	11
108	3
109	7
110	1
111	2
112	2
113	0
114	12
115	12
116	18
117	61
118	14
119	36
120	4
121	6
122	3
123	3
124	1
128	2
129	3
130	10
131	14
132	6
133	8
134	5
135	24
136	1
137	0
141	5
143	6
144	1
145	2
147	231
148	24
150	30
151	6
152	1
153	2
154	1
155	3
156	1
158	5
160	3
161	2
162	5
163	12
164	1
165	0
166	0
167	10
168	15
169	9
170	15
171	2
172	0
176	3
177	6
179	33
180	77
181	36
182	72
183	6
184	4
186	3
193	7
195	16
196	107
198	137
200	22
201	0
209	1
211	1
212	4
214	23
215	2
216	17
217	0
225	57
226	62
227	60
228	61
229	5
272	40
274	40
275	2
