Mass Spectrum: Cyclohexene, 4-(dimethoxymethyl)-
Formula: C9H16O2
CAS: 7560-65-8
Molecular weight: 156
m/z	intensity
14	1
15	17
17	1
18	5
26	2
27	35
28	9
29	23
30	2
31	39
32	9
33	2
36	1
37	1
38	4
39	51
40	8
41	70
42	7
43	10
44	4
45	99
46	3
47	90
48	2
50	6
51	17
52	9
53	33
54	13
55	19
56	4
57	2
58	4
59	5
61	2
62	2
63	4
64	1
65	15
66	20
67	21
68	4
69	7
70	2
71	49
72	3
73	1
74	4
75	999
76	34
77	50
78	28
79	92
80	18
81	48
82	5
83	1
84	2
85	2
88	1
89	1
91	69
92	89
93	141
94	15
95	10
96	4
97	4
101	13
102	1
105	1
107	4
108	6
109	34
110	6
111	2
114	1
115	1
121	2
122	1
123	12
124	176
125	75
126	4
127	1
139	2
140	2
141	2
142	1
156	2
157	1
