Mass Spectrum: Ethane, 1,1-bis(4,4-dimethyl-2-hydroxy-6-oxocyclohexenyl)-
Formula: C18H26O4
CAS: 7560-70-5
Molecular weight: 306
m/z	intensity
26	12
27	154
28	60
29	139
30	4
31	6
36	2
37	7
38	24
39	269
40	138
41	328
42	120
43	250
44	8
45	7
46	2
47	1
48	4
49	2
50	19
51	42
52	23
53	143
54	248
55	443
56	475
57	111
58	7
59	16
60	3
61	6
62	7
63	17
64	11
65	38
66	27
67	72
68	237
69	259
70	148
71	26
72	3
73	6
74	5
75	5
76	9
77	49
78	15
79	40
80	12
81	66
82	935
83	999
84	370
85	28
86	4
87	3
88	2
89	4
90	8
91	39
92	9
93	26
94	13
95	124
96	40
97	89
98	32
99	33
100	4
101	4
102	3
103	7
104	13
105	28
106	9
107	16
108	11
109	47
110	325
111	115
112	241
113	25
114	3
115	9
116	5
117	7
118	4
119	14
120	7
121	19
122	14
123	127
124	39
125	74
126	8
127	3
128	14
129	7
130	3
131	5
132	4
133	18
134	4
135	10
136	5
137	32
138	184
139	78
140	338
141	102
142	11
143	4
144	2
145	6
146	4
147	12
148	10
149	203
150	21
151	193
152	25
153	8
154	48
155	7
156	2
157	2
158	1
159	4
160	3
161	29
162	5
163	9
164	8
165	168
166	886
167	355
168	48
169	7
170	2
171	2
172	2
173	5
174	2
175	7
176	26
177	11
178	9
179	344
180	69
181	22
182	4
183	2
185	2
186	2
187	3
188	2
189	14
190	4
191	42
192	8
193	38
194	182
195	29
196	5
197	2
199	2
201	4
203	5
204	63
205	53
206	9
207	59
208	9
209	7
210	2
211	2
212	3
213	2
215	2
216	1
217	65
218	16
219	6
220	2
221	10
222	38
223	19
224	3
225	2
226	1
227	3
228	1
229	3
230	1
231	10
232	18
233	7
234	3
235	16
236	3
237	2
238	3
239	1
240	1
241	2
242	1
243	3
244	2
245	20
246	5
247	8
248	2
249	3
250	7
251	2
255	3
256	2
257	2
258	1
259	3
260	22
261	7
262	4
263	29
264	6
265	2
270	1
271	3
272	1
273	307
274	60
275	9
276	2
277	2
278	7
279	2
280	1
287	3
288	15
289	7
290	2
291	114
292	23
293	4
305	5
306	452
307	114
308	18
309	2
