Mass Spectrum: Cyclohexene, 4-(dimethoxymethyl)-1-methyl-
Formula: C10H18O2
CAS: 7560-66-9
Molecular weight: 170
m/z	intensity
14	1
15	20
18	2
26	1
27	29
28	8
29	46
30	4
31	63
32	35
33	3
36	2
38	2
39	40
40	9
41	81
42	34
43	59
44	4
45	71
46	2
47	42
50	2
51	7
52	4
53	29
54	7
55	80
56	9
57	9
58	15
59	24
63	2
65	13
66	5
67	39
68	7
69	14
70	8
71	79
72	41
73	6
74	3
75	999
76	34
77	32
78	11
79	57
80	11
81	26
82	4
83	21
84	7
85	187
86	15
87	2
88	3
89	12
91	94
92	21
93	51
94	7
95	33
96	6
97	23
98	24
99	9
101	11
102	1
103	2
105	18
106	72
107	143
108	21
109	30
110	8
111	14
112	4
113	2
114	1
115	4
121	4
122	2
123	199
124	21
125	7
127	20
128	4
129	9
137	11
138	184
139	129
140	13
141	69
142	12
143	2
155	40
156	5
169	2
170	77
171	14
172	2
