Mass Spectrum: Methanone, 1H-imidazol-2-yl[4b,5,6,7,8,8a,9,10-octahydro-4b,8-dimethyl-2-(1-methylethyl)-9-phenanthrenyl]-, [4bS-(4b.alpha.,8.alpha.,8a.beta.)]-
Formula: C23H30N2O
CAS: 75601-27-3
Molecular weight: 350
m/z	intensity
43	240
50	220
68	999
95	720
109	200
141	200
155	110
183	90
197	90
213	70
225	40
239	70
257	40
279	40
307	110
322	610
335	100
350	230
