Mass Spectrum: 7-Chloro-3,4-dihydro-10-hydroxy-3-[4-pyridinyl]-1,9(2H,10H)-acridinedione
Formula: C18H13ClN2O3
CAS: 75618-37-0
Molecular weight: 340
m/z	intensity
41	63
42	37
43	113
44	80
45	37
46	4
50	243
51	668
52	264
53	134
54	58
55	79
56	7
57	10
58	9
59	6
62	420
63	12
64	86
65	181
66	85
67	44
68	26
69	46
70	9
73	81
74	5
75	557
76	155
77	308
78	255
79	160
80	73
81	22
82	34
84	29
85	21
86	45
87	121
88	125
89	158
90	56
91	55
93	277
94	39
95	60
97	28
98	34
99	95
100	78
101	205
102	191
104	236
105	4
106	999
107	91
110	266
111	138
112	76
113	94
114	112
115	88
116	150
117	88
118	69
119	19
120	23
122	90
123	99
124	55
125	63
126	105
127	125
128	307
129	76
130	116
132	28
133	64
136	186
137	164
138	132
139	96
140	77
141	52
142	22
143	23
144	29
145	17
147	78
149	38
150	49
151	96
152	46
153	68
154	143
155	43
156	97
157	14
161	53
162	146
163	352
164	149
165	109
166	50
167	11
168	7
169	14
170	13
171	5
173	11
174	14
175	17
176	29
177	23
178	29
179	21
180	12
181	9
182	22
183	21
184	6
185	8
186	6
187	8
188	38
189	14
190	55
191	59
192	20
193	39
194	7
195	9
199	4
200	7
201	19
202	21
203	34
204	38
205	16
206	18
207	5
208	5
209	5
211	12
212	7
213	5
214	9
215	7
216	30
217	45
218	71
219	249
220	43
221	73
222	8
227	5
228	9
229	30
230	23
231	48
232	66
233	14
234	24
235	6
238	7
239	8
240	6
241	7
242	10
243	5
244	9
245	29
246	138
247	28
248	44
249	7
250	5
252	5
253	6
254	5
258	7
259	19
260	14
261	6
262	66
263	11
264	22
265	21
266	8
267	16
268	40
269	16
270	16
271	5
279	8
280	7
281	99
283	46
284	8
287	6
288	8
289	7
290	5
293	26
294	20
295	113
296	34
297	45
298	11
299	5
305	8
306	8
307	6
308	4
309	8
311	8
312	4
321	20
322	252
323	188
324	446
325	133
326	128
327	24
337	7
338	30
339	17
340	150
341	34
342	47
343	9
