Mass Spectrum: Benzenesulfonic acid, 2,2-dimethylpropyl(ester)
Formula: C11H16O3S
CAS: 75620-67-6
Molecular weight: 228
m/z	intensity
41	231
42	17
43	116
44	4
45	3
48	1
50	38
51	144
52	11
53	14
55	113
56	98
57	999
58	41
59	1
61	0
62	1
63	3
64	1
65	14
66	5
67	2
69	16
70	62
71	77
72	6
73	2
74	7
75	8
77	375
78	70
79	9
80	0
81	2
82	1
83	1
85	1
87	1
91	6
92	1
93	1
94	18
95	2
96	0
97	9
98	1
99	0
105	1
107	1
108	1
109	2
110	0
111	1
112	0
113	0
115	2
119	2
123	0
125	9
126	1
127	1
129	2
141	206
142	40
143	33
144	3
145	1
147	0
149	2
151	0
154	0
155	0
158	3
159	6
171	4
173	593
174	50
175	30
176	2
177	1
198	2
199	0
200	0
212	0
213	33
214	4
215	1
227	0
228	14
229	6
230	1
231	0
