Mass Spectrum: 3-((3-Cholamidopropyl)dimethylammonio)-1-propanesulfonate
Formula: C32H58N2O7S
CAS: 75621-03-3
Molecular weight: 614
m/z	intensity
41	342
42	19
43	267
44	179
45	47
46	15
48	74
49	5
50	13
51	9
52	4
53	26
54	19
55	243
56	57
57	205
58	964
59	12
60	7
61	100
62	7
64	71
65	58
66	21
67	97
68	29
69	62
70	56
71	60
72	81
73	18
74	7
76	7
77	41
78	13
79	88
80	20
81	102
82	24
83	57
84	90
85	39
86	30
87	18
89	5
91	99
92	25
93	90
94	25
95	84
96	18
97	23
98	21
99	999
100	323
101	37
102	5
103	10
104	4
105	90
106	17
107	67
108	17
109	39
110	18
111	19
112	860
113	235
114	29
115	12
116	6
117	32
118	11
119	47
120	11
121	43
122	52
123	24
124	13
125	8
126	10
127	5
128	12
129	27
130	19
131	38
132	9
133	30
134	8
135	15
136	6
137	7
138	13
139	16
140	233
141	36
142	13
143	30
144	87
145	46
146	10
147	23
148	6
149	13
150	6
151	5
152	20
153	12
154	7
155	19
156	14
157	158
158	41
159	26
160	7
161	13
162	5
164	7
165	4
166	20
167	12
168	29
169	19
170	7
171	19
172	8
173	14
174	4
175	7
176	3
177	2
178	3
179	3
180	17
181	19
182	14
183	15
184	6
185	22
186	8
187	9
188	2
189	4
194	4
195	6
196	5
197	14
198	5
199	13
200	4
201	4
208	3
209	6
210	5
211	17
212	6
213	12
214	3
215	4
220	3
222	49
223	13
224	3
225	8
226	7
227	7
229	3
236	3
237	5
238	6
239	4
248	2
250	5
251	3
253	24
254	6
255	3
264	7
265	3
266	7
267	11
271	18
272	5
274	3
279	4
288	7
289	2
290	6
291	2
292	13
293	5
295	3
298	3
306	3
309	3
317	4
320	6
337	4
368	4
372	3
378	4
386	16
387	4
390	18
391	6
396	8
400	3
401	4
402	2
404	4
410	4
411	6
412	4
414	14
415	3
418	16
419	11
428	3
429	30
430	13
431	4
432	9
441	3
446	4
447	14
448	8
456	4
459	3
474	14
475	6
492	6
493	3
