Mass Spectrum: 6-Amino-1-hexyl phosphate
Formula: C6H16NO4P
CAS: 7564-68-3
Molecular weight: 197
m/z	intensity
15	6
16	1
17	31
18	178
19	9
26	4
27	39
28	69
29	36
30	999
31	46
32	6
37	1
38	3
39	49
40	8
41	85
42	46
43	74
44	68
45	99
46	4
47	5
48	2
50	3
51	5
52	3
53	18
54	36
55	60
56	278
57	30
58	5
59	9
60	1
62	2
63	17
64	4
65	8
66	4
67	107
68	18
69	18
70	66
71	9
72	10
73	6
77	4
78	1
79	11
80	7
81	122
82	123
83	15
84	6
85	3
86	18
87	32
88	2
91	1
92	1
93	2
94	2
95	3
96	6
97	9
98	80
99	9
100	27
101	2
105	1
109	1
110	3
111	2
112	1
113	1
115	1
116	1
117	1
118	11
119	1
123	1
125	1
129	1
141	1
149	1
