Mass Spectrum: 2-Methylcyclopentan-1-amine
Formula: C6H13N
CAS: 756435-85-5
Molecular weight: 99
m/z	intensity
15	13
28	78
29	65
37	66
38	177
39	377
40	107
41	476
42	331
43	229
44	60
48	3
49	16
50	35
51	45
52	34
53	43
54	75
55	54
56	999
57	159
58	4
66	7
67	21
68	10
69	3
70	227
71	11
81	5
82	20
84	13
98	12
99	146
100	10
