Mass Spectrum: 3,5-Dimethylamphetamine
Formula: C11H17N
CAS: 75659-63-1
Molecular weight: 163
m/z	intensity
41	160
42	190
44	999
45	120
51	110
65	110
77	270
78	130
79	110
91	340
103	140
104	140
105	430
115	130
117	110
119	250
120	180
163	10
