Mass Spectrum: 2,3-Dimethylamphetamine
Formula: C11H17N
CAS: 75659-60-8
Molecular weight: 163
m/z	intensity
41	180
42	200
44	999
45	170
51	140
65	180
77	340
78	160
79	150
91	410
103	210
104	150
105	460
115	210
117	190
119	310
120	160
131	100
163	10
