Mass Spectrum: 2,4-Dimethylamphetamine
Formula: C11H17N
CAS: 75659-61-9
Molecular weight: 163
m/z	intensity
41	70
42	70
44	999
45	60
51	50
65	50
77	120
78	60
79	50
91	140
103	60
104	60
105	190
115	80
117	60
119	130
120	90
163	10
