Mass Spectrum: Hexane, 1-amino, heptafluorobutanoyl-
Formula: C10H14F7NO
CAS: 75668-28-9
Molecular weight: 297
m/z	intensity
40	24
41	404
42	232
43	999
44	64
51	12
53	24
54	32
55	344
56	392
57	152
58	184
67	24
69	332
70	24
71	12
72	44
73	12
78	24
79	12
82	12
83	24
84	104
85	172
86	12
100	12
108	72
109	32
119	32
128	312
129	24
166	12
169	352
170	12
178	64
194	44
197	24
198	24
214	272
215	12
226	672
227	992
228	84
240	144
241	24
254	52
268	64
