Mass Spectrum: (6R,7aS)-3,6-Dimethyl-5,6,7,7a-tetrahydrobenzofuran-2(4H)-one
Formula: C10H14O2
CAS: 75684-66-1
Molecular weight: 166
m/z	intensity
26	14
27	178
29	117
30	6
37	5
38	34
39	479
40	90
41	457
42	39
43	333
45	11
46	5
49	5
50	65
51	159
52	94
53	420
54	193
55	268
56	36
57	29
61	10
62	18
63	52
64	8
65	150
66	97
67	999
68	251
69	142
70	22
74	11
75	5
76	8
77	122
78	17
79	174
80	112
81	852
82	341
83	45
91	29
93	56
94	63
95	645
96	147
97	51
98	9
99	12
107	52
108	27
109	660
110	456
111	293
112	41
113	10
122	70
123	345
124	179
125	41
137	741
138	410
139	54
140	11
151	41
165	13
166	879
167	93
168	12
