Mass Spectrum: 4-(1,2-Dimethyl-cyclopent-2-enyl)-butan-2-one
Formula: C11H18O
CAS: 75698-06-5
Molecular weight: 166
m/z	intensity
27	22
28	4
29	14
30	4
39	33
40	5
41	36
42	4
43	94
44	2
51	10
52	6
53	30
54	3
55	48
56	2
63	2
65	14
66	3
67	87
68	6
69	3
71	9
77	41
78	7
79	46
80	11
81	19
91	41
92	6
93	131
94	46
95	999
96	124
97	7
105	8
106	3
107	14
108	110
109	29
111	3
123	4
133	14
148	5
151	6
166	5
