Mass Spectrum: Methanone, [2-methyl-5-(1-methylethenyl)cyclopentyl]phenyl-, (1.alpha.,2.alpha.,5.beta.)-
Formula: C16H20O
CAS: 75698-02-1
Molecular weight: 228
m/z	intensity
26	2
27	53
28	5
29	58
30	1
31	1
37	0
38	3
39	97
40	18
41	185
42	13
43	71
44	5
45	1
50	21
51	115
52	16
53	62
54	9
55	102
56	7
57	28
58	1
59	1
62	2
63	11
64	3
65	35
66	11
67	89
68	11
69	86
70	9
71	2
72	0
73	0
74	5
75	8
76	23
77	504
78	56
79	77
80	16
81	233
82	32
83	15
84	1
85	1
86	0
87	2
88	1
89	7
90	2
91	88
92	12
93	76
94	12
95	49
96	8
97	2
98	0
99	1
100	0
101	1
102	6
103	12
104	7
105	999
106	134
107	74
108	131
109	38
110	5
111	1
112	0
113	0
114	1
115	33
116	10
117	15
118	5
119	3
120	5
121	16
122	218
123	703
124	75
125	4
126	2
127	16
128	31
129	32
130	7
131	19
132	4
133	6
134	2
135	3
136	1
137	2
138	1
139	2
140	1
141	16
142	11
143	22
144	12
145	73
146	20
147	47
148	11
149	16
150	2
151	4
152	7
153	9
154	11
155	22
156	8
157	26
158	22
159	65
160	50
161	6
162	1
163	1
164	1
165	7
166	4
167	9
168	4
169	9
170	16
171	73
172	17
173	118
174	16
175	2
176	1
177	1
178	2
179	2
180	2
181	3
182	2
183	13
184	7
185	113
186	76
187	15
188	2
189	1
190	1
192	1
193	1
194	1
195	7
196	1
197	2
198	1
199	8
200	7
201	1
210	2
211	2
212	1
213	50
214	9
226	3
227	6
228	169
229	31
230	3
231	2
