Mass Spectrum: 2,6-Octadien-1-one, 3,7-dimethyl-1-phenyl-, (E)-
Formula: C16H20O
CAS: 75697-95-9
Molecular weight: 228
m/z	intensity
26	6
27	97
28	23
29	65
38	7
39	148
40	24
41	887
42	44
43	86
44	5
45	7
50	31
51	148
52	20
53	106
54	39
55	70
56	11
57	28
62	4
63	19
64	7
65	40
66	12
67	88
68	18
69	999
70	70
71	12
74	8
75	11
76	26
77	525
78	54
79	39
80	9
81	79
82	61
83	63
84	7
85	5
89	14
91	144
92	17
93	38
94	8
95	28
96	8
97	5
102	11
103	19
104	11
105	760
106	72
107	47
108	179
109	65
110	6
115	84
116	41
117	46
118	8
119	7
120	6
121	13
122	33
123	190
124	25
127	49
128	51
129	57
130	19
131	72
132	14
133	8
141	56
142	38
143	44
144	47
145	577
146	83
147	27
148	16
149	11
151	8
152	9
153	9
154	6
155	27
156	15
157	57
158	63
159	767
160	504
161	68
162	6
165	11
167	35
168	7
169	14
170	65
171	73
172	23
173	62
174	8
181	6
183	6
184	6
185	275
186	55
187	7
195	12
199	9
200	29
201	6
210	7
211	7
213	125
214	24
227	23
228	126
229	27
