Mass Spectrum: 13-(7-Acetamido-4-acetyl-4-azaheptyl)-12-dodecanolactam
Formula: C22H41N3O3
CAS: 75701-25-6
Molecular weight: 395
m/z	intensity
70	660
84	350
100	999
112	120
125	200
129	330
143	360
155	830
159	160
168	200
182	230
185	200
196	170
199	120
210	180
224	340
238	220
254	160
281	130
293	230
324	120
352	200
367	90
395	50
