Mass Spectrum: Naphthalene, 2-[(phenylmethyl)thio]-
Formula: C17H14S
CAS: 7570-97-0
Molecular weight: 250
m/z	intensity
27	1
29	0
30	0
31	0
33	0
37	0
38	2
39	27
40	2
41	9
42	0
43	1
44	0
45	7
50	5
51	16
52	3
53	0
54	0
55	1
56	0
57	1
58	0
59	0
60	0
61	0
62	5
63	22
64	5
65	81
66	4
67	0
68	0
69	5
70	0
71	1
72	0
73	0
74	4
75	7
76	4
77	9
78	1
79	1
80	0
81	1
82	1
83	0
85	0
86	1
87	4
88	3
89	22
90	5
91	999
92	78
93	2
94	0
95	0
96	0
97	0
98	1
99	1
100	1
101	4
102	1
103	0
104	0
105	0
106	0
107	0
108	1
109	0
111	0
112	0
113	5
114	12
115	123
116	13
117	1
118	0
119	0
120	0
121	4
122	1
123	1
124	0
125	0
126	8
127	9
128	7
129	1
130	0
131	0
132	1
133	0
134	0
139	0
140	0
141	0
142	0
143	0
144	0
147	0
148	0
149	0
150	0
151	0
152	0
153	0
154	0
156	0
157	0
158	11
159	26
160	4
161	1
162	0
163	0
164	0
165	0
166	0
167	0
168	0
169	0
170	0
171	2
172	1
174	0
175	0
176	0
177	0
178	0
179	0
180	0
181	0
182	0
183	0
184	0
185	0
186	0
187	0
188	0
189	1
190	0
191	0
192	0
193	0
194	0
195	0
196	0
197	0
198	0
199	0
200	0
201	0
202	3
203	1
204	0
205	0
206	0
208	0
209	0
211	0
212	0
213	1
214	0
215	8
216	3
217	10
218	1
219	0
220	0
221	0
222	0
223	0
228	0
229	0
230	0
231	0
232	0
233	0
234	0
235	0
236	0
238	0
239	0
241	0
243	0
244	0
245	0
246	0
247	1
248	0
249	1
250	248
251	50
252	16
253	2
254	0
