Mass Spectrum: Cyclohexyl phenyl sulfide
Formula: C12H16S
CAS: 7570-92-5
Molecular weight: 192
m/z	intensity
26	5
27	56
29	38
30	0
33	2
34	0
37	0
38	7
39	93
40	4
41	177
42	8
43	9
44	1
45	33
47	3
49	0
50	15
51	43
52	7
53	31
54	20
55	241
56	8
57	3
58	6
59	4
61	1
62	1
63	6
64	1
65	53
66	31
67	47
68	1
69	27
70	2
71	4
73	4
74	2
75	1
76	1
77	31
78	11
79	15
80	2
81	32
82	12
83	87
84	15
85	4
86	0
91	13
92	3
93	0
97	1
103	0
105	2
107	0
108	8
109	72
110	999
111	78
112	38
113	4
115	4
116	7
117	1
121	1
123	14
124	2
125	0
126	0
134	3
135	9
136	2
147	2
149	4
151	0
192	241
193	34
194	15
195	1
