Mass Spectrum: Silane, (iodomethyl)-
Formula: CH5ISi
CAS: 7570-22-1
Molecular weight: 172
m/z	intensity
28	750
29	250
30	190
31	200
41	220
42	310
43	999
44	340
45	940
127	150
155	610
157	140
171	750
172	130
