Mass Spectrum: 3,7-Di-tert-butyl-1,5-diphenyl-3,7-diazabicyclo-[3,3,1]nonan-9-one
Formula: C27H36N2O
CAS: 75703-40-1
Molecular weight: 404
m/z	intensity
38	2
39	20
40	3
41	180
42	110
43	52
44	530
45	12
49	1
50	3
51	7
52	3
53	3
54	4
55	17
56	70
57	470
58	50
59	2
60	3
62	1
63	2
65	6
66	1
67	2
68	4
69	4
70	80
71	6
72	4
73	3
74	3
75	2
76	4
77	64
78	9
79	5
80	2
81	2
82	5
83	2
84	15
85	6
86	140
87	5
89	6
90	7
91	180
92	11
93	3
94	2
95	2
96	2
98	5
99	7
100	999
101	75
102	23
103	290
104	35
105	17
106	3
115	76
116	17
117	82
118	21
119	7
120	3
122	3
127	6
128	13
129	16
130	30
131	30
132	85
133	7
134	2
141	4
142	4
143	11
144	32
145	11
146	51
147	7
148	2
149	5
152	2
153	2
154	3
155	2
156	12
157	7
158	10
159	8
160	10
161	3
165	5
166	2
167	3
168	3
169	2
170	5
171	3
172	22
173	12
174	23
175	24
176	4
178	7
179	3
180	2
184	8
185	8
186	7
187	9
188	52
189	10
190	4
191	11
192	4
193	3
194	2
195	2
198	3
199	2
200	14
201	7
202	20
203	9
204	8
205	19
206	11
207	4
212	2
213	2
214	2
215	6
216	11
217	9
218	10
219	15
220	30
221	7
222	3
228	10
229	3
230	4
231	4
232	15
233	22
234	120
235	27
236	5
237	1
240	3
241	10
242	8
243	2
244	5
245	7
246	50
247	52
248	660
249	110
250	14
251	2
254	3
259	13
260	160
261	26
262	240
263	54
264	6
271	4
272	4
273	3
274	9
275	5
276	11
277	3
278	2
288	11
289	5
290	11
291	29
292	11
293	3
301	5
302	16
303	13
304	330
305	99
306	16
307	5
313	2
316	3
317	26
318	740
319	590
320	120
321	10
322	4
327	3
331	7
332	4
333	3
347	96
348	20
349	3
361	3
374	3
376	12
377	3
388	3
389	7
403	25
404	280
405	84
406	12
407	1
