Mass Spectrum: Silane, (bromomethyl)-
Formula: CH5BrSi
CAS: 7570-21-0
Molecular weight: 124
m/z	intensity
28	490
29	260
30	100
31	170
41	170
42	190
43	999
44	550
45	190
107	190
109	240
111	140
123	190
124	200
125	180
126	190
