Mass Spectrum: 13,17,21-Triacetyl-13,17,21-triaza-24-tetracosane lactam
Formula: C27H50N4O4
CAS: 75701-28-9
Molecular weight: 494
m/z	intensity
70	650
79	999
100	750
112	430
125	250
139	200
145	150
159	150
195	160
210	100
224	150
235	150
254	100
267	110
281	100
297	250
323	70
340	120
352	120
366	80
396	160
409	50
451	600
476	30
494	40
