Mass Spectrum: 4-Dihexylcarbamoyl-butyric acid
Formula: C17H33NO3
CAS: 75727-37-6
Molecular weight: 299
m/z	intensity
26	8
27	105
28	31
29	134
30	42
31	25
36	4
38	7
39	87
40	22
41	241
42	140
43	233
44	111
45	156
46	6
47	4
50	3
51	3
53	7
54	5
55	119
56	207
57	162
58	29
59	11
60	52
61	4
65	3
66	3
67	5
68	8
69	23
70	45
71	14
72	11
73	33
74	4
75	3
77	4
79	3
81	4
82	4
83	12
84	12
85	15
86	89
87	292
88	35
89	5
91	4
93	3
95	3
96	4
97	35
98	41
99	9
100	17
101	6
105	4
111	3
112	10
113	9
114	340
115	999
116	59
117	18
119	2
126	4
127	7
128	19
129	4
131	3
132	16
133	23
140	6
141	5
142	35
143	7
144	4
145	8
154	3
155	4
156	18
157	3
158	5
159	12
163	3
168	3
169	3
170	17
171	4
172	3
173	5
182	5
184	14
185	7
186	4
187	3
196	3
198	4
200	3
212	70
213	10
214	20
215	4
224	6
228	16
229	8
238	4
240	18
241	3
242	6
252	4
254	3
256	7
270	5
282	4
299	18
300	4
