Mass Spectrum: Bis(3-methylbutyl) n-heptafluorobutyrylaspartate
Formula: C18H26F7NO5
CAS: 75743-06-5
Molecular weight: 469
m/z	intensity
43	905
69	70
71	999
114	2
115	3
119	6
169	18
238	4
239	110
266	31
267	25
284	54
312	35
339	1
354	144
382	1
400	5
426	1
