Mass Spectrum: Bis(3-methylbutyl) n-heptafluorobutyrylglutamate
Formula: C19H28F7NO5
CAS: 75742-82-4
Molecular weight: 483
m/z	intensity
69	53
71	999
114	4
115	5
143	5
156	1
169	10
252	194
253	34
271	3
280	156
281	27
298	238
326	36
341	11
353	1
368	158
396	27
414	8
440	4
468	3
483	3
