Mass Spectrum: 3-Methylbutyl N,O-bis(heptafluorobutyryl)tyrosinate
Formula: C22H19F14NO5
CAS: 75742-72-2
Molecular weight: 643
m/z	intensity
69	182
70	999
71	324
91	41
115	2
119	35
169	114
303	686
315	42
331	50
343	90
360	542
387	1
430	131
528	102
574	2
628	1
643	1
