Mass Spectrum: Dipropyl N-(heptafluorobutyryl)aspartate
Formula: C14H18F7NO5
CAS: 75743-04-3
Molecular weight: 413
m/z	intensity
29	56
30	10
31	13
34	7
35	8
36	7
38	9
39	41
40	14
41	229
42	58
43	999
44	73
45	11
46	6
47	8
50	2
52	10
53	1
54	9
55	8
57	7
58	9
59	3
60	21
61	155
62	16
63	8
65	5
66	10
67	5
68	3
69	90
70	119
71	63
72	12
73	7
74	12
75	39
76	5
77	6
78	0
79	3
81	3
82	2
84	10
85	5
86	23
87	14
88	18
89	5
91	4
96	2
97	1
98	6
99	79
100	14
101	4
102	5
103	9
104	5
109	6
111	2
113	28
114	21
115	7
116	7
119	8
121	2
129	7
130	13
131	5
132	8
133	7
135	2
141	11
142	14
146	7
147	0
169	60
174	7
196	16
197	15
207	2
214	50
216	8
225	8
226	6
238	31
239	214
240	288
241	22
242	120
243	9
252	19
253	70
254	7
264	54
265	19
266	200
267	57
268	11
270	8
271	26
279	13
280	6
281	6
282	9
283	29
284	299
285	39
286	6
292	21
296	13
297	5
298	6
310	7
311	19
312	138
313	70
314	9
325	11
326	521
327	141
328	14
353	14
354	37
355	5
370	15
372	6
383	13
387	22
