Mass Spectrum: Benzene, 1-bromo-4-(trimethylsilylcarbonyl)-
Formula: C10H13BrOSi
CAS: 75748-11-7
Molecular weight: 256
m/z	intensity
27	1
28	3
29	20
30	1
31	3
39	2
40	1
41	0
42	8
43	70
44	30
45	129
46	8
47	9
50	23
51	6
53	11
54	2
55	11
56	2
57	10
58	23
59	4
60	1
61	1
62	1
63	2
64	0
65	1
66	1
67	2
68	0
69	1
70	3
71	4
72	26
73	999
74	86
75	81
76	47
77	6
78	1
79	1
83	2
85	0
86	0
87	0
88	1
89	1
90	1
91	14
92	1
93	2
94	0
99	0
101	5
102	11
103	4
104	124
105	14
106	1
107	6
108	0
109	7
110	0
111	0
115	1
116	0
117	1
118	0
119	9
120	1
121	1
123	0
125	0
129	1
131	2
132	0
133	2
134	6
135	0
137	3
139	3
141	0
142	0
145	0
147	2
148	0
149	1
150	0
151	0
155	29
156	2
157	29
158	2
159	1
160	0
161	3
162	1
163	0
167	0
169	0
171	0
176	1
177	352
178	55
179	17
180	1
181	1
182	35
183	3
184	31
185	3
187	1
188	0
197	0
198	0
199	1
200	1
201	0
202	0
208	0
211	0
212	0
213	67
214	9
215	68
216	10
217	3
225	0
226	0
227	0
228	0
229	0
235	0
236	0
239	0
241	26
242	4
243	26
244	3
245	1
250	0
251	0
255	6
256	16
257	11
258	17
259	5
260	1
261	0
