Mass Spectrum: 3-Methylbutyl N-(heptafluorobutyryl)phenylalaninate
Formula: C18H20F7NO3
CAS: 75742-89-1
Molecular weight: 431
m/z	intensity
69	116
70	425
71	335
91	999
103	184
115	4
119	142
131	143
148	515
169	48
175	8
197	2
218	174
262	1
316	137
344	2
362	3
416	1
431	2
