Mass Spectrum: 3-Methylbutyl N-(heptafluorobutyryl)leucinate
Formula: C15H22F7NO3
CAS: 75743-21-4
Molecular weight: 397
m/z	intensity
43	999
69	679
71	345
114	11
115	8
119	5
169	49
226	50
240	384
253	24
266	29
271	9
282	545
310	2
326	1
328	6
341	51
354	1
