Mass Spectrum: Octanamidosuccinic acid
Formula: C12H21NO5
CAS: 75771-97-0
Molecular weight: 259
m/z	intensity
14	1
15	14
16	2
17	16
18	2
26	11
27	207
28	115
29	276
30	67
31	9
36	2
37	1
38	5
39	131
40	29
41	539
42	182
43	926
44	214
45	83
46	17
47	2
48	1
50	3
51	8
52	5
53	37
54	30
55	485
56	136
57	808
58	41
59	98
60	765
61	107
62	6
63	4
64	1
65	7
66	4
67	56
68	31
69	163
70	231
71	57
72	53
73	506
74	77
75	6
76	1
77	5
78	2
79	10
80	9
81	24
82	47
83	97
84	269
85	280
86	31
87	188
88	999
89	60
90	22
91	5
92	2
93	4
94	3
95	6
96	12
97	54
98	95
99	51
100	13
101	250
102	100
103	9
104	1
105	2
106	1
107	4
108	7
109	34
110	7
111	42
112	33
113	23
114	36
115	126
116	59
117	5
118	2
119	1
121	1
122	1
123	2
124	8
125	13
126	54
127	215
128	25
129	106
130	51
131	93
132	24
133	18
134	174
135	9
136	3
137	1
138	3
139	11
140	11
141	20
142	47
143	6
144	78
145	12
146	2
147	9
148	2
149	3
150	1
151	1
152	5
153	1
154	9
155	3
156	7
157	491
158	47
159	8
160	1
163	1
165	1
166	1
167	1
168	12
169	83
170	121
171	15
172	9
173	3
175	655
176	49
177	9
178	1
179	1
180	1
183	1
184	22
185	3
186	7
187	1
188	74
189	9
190	1
191	2
192	1
195	3
196	7
197	4
198	23
199	4
200	1
202	10
203	2
209	3
211	4
212	14
213	9
214	28
215	41
216	13
217	3
223	2
226	2
229	1
230	9
231	2
240	1
241	12
242	10
243	1
258	2
259	13
260	11
261	1
