Mass Spectrum: 2,2-Diphenyl-3-methyl-4-morpholinobutyramide
Formula: C21H26N2O2
CAS: 7577-18-6
Molecular weight: 338
m/z	intensity
54	7
56	167
57	11
70	22
71	18
86	7
87	7
91	43
98	7
100	999
101	172
102	12
103	5
104	29
115	48
116	7
117	4
126	5
127	11
128	351
129	38
152	16
153	5
165	27
166	20
178	30
179	9
182	14
193	25
194	39
211	93
212	11
