Mass Spectrum: Ethyl 1,3,5-trimethyl-4-benzyloxycarbonylamino-2-pyrrolecarboxylate
Formula: C18H22N2O4
CAS: 75792-42-6
Molecular weight: 330
m/z	intensity
42	129
43	28
44	12
45	8
47	6
48	2
49	26
50	15
51	66
52	35
53	50
54	39
56	287
57	9
58	3
59	1
60	0
61	1
63	48
65	191
66	29
67	36
68	20
69	8
70	5
71	2
72	0
73	1
74	2
75	2
77	67
78	18
79	59
80	95
81	56
82	18
83	5
84	15
86	13
89	46
91	999
92	69
94	24
95	18
96	9
97	2
98	0
99	1
105	18
106	23
107	41
108	33
109	6
110	1
111	1
119	3
121	25
122	21
123	17
124	4
125	1
126	0
133	1
134	3
135	5
136	1
137	2
139	5
140	0
141	0
143	1
147	1
148	1
149	7
150	8
151	6
152	2
153	0
161	1
163	1
165	6
167	199
168	19
169	2
177	11
178	1
179	0
181	2
191	1
193	8
195	223
196	29
197	3
209	0
211	2
212	1
213	1
221	3
222	4
223	1
225	0
239	36
240	5
241	1
285	15
286	2
330	87
331	19
332	2
