Mass Spectrum: Ethanamine, N,N-difluoro-
Formula: C2H5F2N
CAS: 758-18-9
Molecular weight: 81
m/z	intensity
15	362
16	5
27	706
28	208
29	999
30	22
33	32
43	75
44	2
66	38
67	1
81	68
82	2
