Mass Spectrum: Silane, ethyldimethyl-
Formula: C4H12Si
CAS: 758-21-4
Molecular weight: 88
m/z	intensity
14	1
15	5
26	4
27	19
28	7
29	40
30	4
31	55
32	4
33	2
39	4
40	1
41	6
42	33
43	156
44	51
45	357
46	23
47	12
52	2
53	23
54	6
55	21
56	5
57	25
58	384
59	999
60	84
61	35
65	3
66	4
67	4
68	1
69	2
70	7
71	9
72	54
73	260
74	24
75	9
86	2
87	144
88	42
89	9
90	1
