Mass Spectrum: 4-Penten-2-one, 3-methyl-
Formula: C6H10O
CAS: 758-87-2
Molecular weight: 98
m/z	intensity
25	0
26	17
27	100
28	0
29	78
30	2
31	1
36	0
37	5
38	11
39	73
40	3
41	24
42	17
43	999
44	21
45	2
49	3
50	15
51	17
52	6
53	28
54	13
55	90
56	11
57	0
58	0
61	0
62	1
63	0
65	0
66	0
67	1
69	0
70	0
73	0
74	0
77	1
79	0
81	2
82	0
83	15
84	0
95	0
98	80
99	5
