Mass Spectrum: Imidosulfurous difluoride, methyl-
Formula: CH3F2NS
CAS: 758-20-3
Molecular weight: 99
m/z	intensity
39	92
46	396
49	56
50	75
51	223
60	283
61	110
70	313
71	62
77	120
78	71
79	84
80	291
98	746
99	999
100	56
101	47
