Mass Spectrum: Ethanol, 2-(1,1-dimethylethoxy)-
Formula: C6H14O2
CAS: 7580-85-0
Molecular weight: 118
m/z	intensity
24	0
25	3
26	19
27	84
28	64
29	223
30	10
31	102
32	4
33	5
37	6
38	9
39	95
40	19
41	418
42	34
43	60
44	10
45	135
46	3
47	0
48	0
49	2
50	7
51	6
52	2
53	10
54	3
55	43
56	179
57	999
58	49
59	595
60	22
61	4
62	0
63	7
68	6
69	0
70	0
71	0
72	2
73	1
75	0
85	0
86	3
87	43
88	13
89	0
99	1
102	0
103	165
104	10
105	0
