Mass Spectrum: Salutaridine, 4-O,6-O-diacetyl-6-O-demethyl-
Formula: C22H23NO6
CAS: 75820-95-0
Molecular weight: 397
m/z	intensity
42	184
43	999
44	95
45	7
51	11
52	4
53	8
54	5
55	20
56	17
57	25
58	27
63	11
64	4
65	10
66	8
67	7
68	8
69	8
70	101
71	10
75	7
76	4
77	29
78	10
79	6
80	7
81	8
82	19
83	18
84	11
86	4
87	4
88	4
89	11
90	4
91	12
92	4
93	6
94	21
95	7
96	6
97	6
98	5
100	5
101	9
102	11
103	9
104	4
105	5
106	5
107	5
108	5
109	4
110	7
112	4
113	7
114	10
115	57
116	10
117	6
118	9
119	4
120	5
122	6
123	5
126	23
127	38
128	44
129	14
130	7
131	12
132	8
133	6
134	4
137	15
138	11
139	55
140	17
141	29
142	10
143	11
144	9
145	6
146	8
147	14
148	30
149	10
150	7
151	15
152	42
153	34
154	21
155	42
156	22
157	18
158	6
159	7
160	6
161	9
162	10
163	7
164	5
165	23
166	11
167	19
168	40
169	32
170	18
171	16
172	6
173	5
174	5
175	12
176	36
177	21
178	9
179	6
180	11
181	49
182	26
183	30
184	47
185	33
186	10
187	8
188	6
189	4
190	4
192	4
193	10
194	14
195	18
196	31
197	38
198	30
199	36
200	19
201	9
202	4
206	4
207	6
208	10
209	23
210	36
211	30
212	45
213	55
214	20
215	12
216	12
217	4
218	4
220	4
221	9
222	12
223	13
224	31
225	47
226	87
227	51
228	69
229	20
230	13
231	9
234	6
235	6
236	11
237	18
238	22
239	25
240	59
241	55
242	104
243	47
244	11
249	5
250	15
251	14
252	35
253	26
254	33
255	33
256	49
257	20
258	6
264	5
265	7
266	27
267	27
268	59
269	26
270	55
271	13
272	5
278	6
279	4
280	16
281	10
282	17
283	11
284	206
285	79
286	12
294	16
295	15
296	115
297	28
298	52
299	13
309	4
310	29
311	8
312	70
313	103
314	19
326	241
327	75
328	12
338	16
339	4
340	8
354	127
355	136
356	27
357	4
368	4
369	39
370	8
397	298
398	74
399	13
