Mass Spectrum: 1'-Carboethoxy-1'-cyano-1.beta.,2.beta.-dihydro-17.beta.-propionoxy-3'H-cycloprop[1,2]androsta-1,4,6-trien-3-one
Formula: C27H33NO5
CAS: 75857-77-1
Molecular weight: 451
m/z	intensity
22	0
23	0
24	0
25	1
26	11
27	106
28	38
29	682
30	18
31	4
32	0
33	0
34	0
35	0
36	0
37	0
38	1
39	21
40	4
41	83
42	8
43	28
44	4
45	5
46	1
47	1
48	0
49	0
50	2
51	8
52	5
53	31
54	4
55	71
56	9
57	999
58	37
59	3
60	0
61	0
62	0
63	5
64	7
65	19
66	6
67	30
68	6
69	10
70	2
71	5
72	0
73	1
74	2
75	6
76	3
77	35
78	11
79	38
80	10
81	38
82	4
83	6
84	1
85	1
86	0
87	0
88	1
89	5
90	4
91	51
92	9
93	34
94	11
95	15
96	4
97	16
98	3
99	0
100	0
101	2
102	6
103	12
104	6
105	31
106	11
107	19
108	7
109	9
110	2
111	2
112	1
113	3
114	5
115	47
116	15
117	20
118	7
119	13
120	5
121	6
122	3
123	6
124	2
125	2
126	4
127	16
128	32
129	30
130	11
131	25
132	12
133	105
134	16
135	3
136	2
137	2
138	5
139	9
140	19
141	34
142	19
143	23
144	13
145	18
146	11
147	6
148	2
149	5
150	6
151	10
152	19
153	33
154	22
155	27
156	13
157	18
158	19
159	15
160	6
161	4
162	2
163	3
164	5
165	24
166	29
167	31
168	25
169	23
170	16
171	43
172	16
173	12
174	3
175	1
176	4
177	7
178	17
179	18
180	22
181	26
182	21
183	17
184	11
185	10
186	10
187	5
188	1
189	7
190	9
191	11
192	17
193	16
194	20
195	19
196	31
197	30
198	12
199	19
200	7
201	4
202	7
203	11
204	11
205	16
206	13
207	13
208	14
209	17
210	28
211	15
212	11
213	5
214	5
215	10
216	6
217	9
218	13
219	11
220	12
221	12
222	19
223	18
224	15
225	10
226	5
227	8
228	5
229	6
230	5
231	9
232	34
233	16
234	17
235	12
236	18
237	14
238	11
239	6
240	5
241	3
242	5
243	4
244	5
245	16
246	10
247	8
248	11
249	11
250	9
251	5
252	4
253	4
254	6
255	4
256	6
257	4
258	5
259	5
260	10
261	9
262	12
263	7
264	7
265	13
266	6
267	7
268	15
269	6
270	5
271	5
272	5
273	3
274	9
275	7
276	11
277	9
278	6
279	4
280	4
281	4
282	11
283	18
284	8
285	4
286	4
287	4
288	14
289	7
290	7
291	3
292	6
293	5
294	6
295	3
296	3
297	2
298	3
299	5
300	2
301	1
302	6
303	8
304	14
305	6
306	7
307	4
308	5
309	3
310	2
311	1
312	2
313	1
314	3
315	3
316	11
317	7
318	2
319	2
320	8
321	9
322	13
323	6
324	5
325	2
326	1
327	0
328	0
329	0
330	2
331	6
332	9
333	4
334	24
335	12
336	6
337	2
338	8
339	7
340	2
341	1
342	0
343	1
344	1
345	1
346	1
347	2
348	10
349	16
350	29
351	12
352	6
353	2
354	0
355	0
356	0
357	0
358	0
359	2
360	2
361	1
362	44
363	17
364	7
365	2
366	7
367	5
368	1
369	1
370	0
371	1
372	0
373	0
374	1
375	1
376	4
377	26
378	25
379	8
380	17
381	5
382	2
383	2
384	1
385	1
386	0
387	0
388	1
389	1
390	10
391	5
392	2
393	2
395	86
396	24
397	5
398	1
399	1
400	0
401	0
402	0
403	0
404	1
405	9
406	10
408	87
409	24
410	5
411	2
412	0
413	0
414	0
415	0
416	0
417	0
418	0
419	0
420	0
421	2
422	6
423	12
424	4
425	1
426	0
427	0
428	0
429	0
431	0
432	0
433	0
434	1
436	33
437	10
438	3
439	1
440	0
441	0
442	0
443	0
444	0
445	0
446	0
447	0
448	1
449	1
451	103
452	59
453	14
454	3
455	0
