Mass Spectrum: L-Proline, N-cyclohexylcarbonyl-, methyl ester
Formula: C13H21NO3
CAS: 75857-92-0
Molecular weight: 239
m/z	intensity
26	2
27	18
28	15
29	12
30	2
31	2
38	1
39	26
40	6
41	79
42	20
43	14
44	4
45	2
50	1
51	2
52	2
53	15
54	14
55	88
56	6
59	11
60	2
65	3
66	2
67	21
68	29
69	20
70	999
71	41
72	1
77	4
78	2
79	9
80	3
81	21
82	10
83	205
84	16
85	2
86	1
95	2
96	5
97	5
98	3
99	1
108	2
109	5
110	10
111	24
112	5
114	2
122	1
124	17
125	6
126	2
128	63
129	7
130	22
131	2
136	2
138	2
139	1
150	2
151	3
152	3
153	5
171	10
178	2
179	3
180	176
181	23
182	2
184	27
185	3
198	3
239	77
240	17
241	2
