Mass Spectrum: 30-Norolean-12-en-3-ol, 20-(methylamino)-, (3.beta.,20.beta.)-
Formula: C30H51NO
CAS: 75857-95-3
Molecular weight: 441
m/z	intensity
27	13
29	54
30	56
32	73
39	14
41	182
42	48
43	256
45	37
46	19
53	39
55	239
56	151
57	129
58	68
59	15
65	15
67	100
68	24
69	189
70	212
71	371
72	51
77	51
78	10
79	93
80	20
81	179
82	36
83	56
84	999
85	203
86	14
91	112
92	21
93	140
94	37
95	189
96	44
97	42
98	24
99	15
102	12
103	11
105	195
106	45
107	140
108	46
109	101
110	43
111	33
112	22
115	17
117	42
118	16
119	150
120	46
121	152
122	67
123	61
124	29
125	16
128	16
129	32
130	16
131	76
132	30
133	122
134	63
135	106
136	43
137	31
138	16
139	22
142	16
143	39
144	20
145	108
146	32
147	88
148	50
149	51
150	29
151	17
152	20
153	15
155	17
157	39
158	17
159	75
160	36
161	71
162	65
163	44
169	16
171	31
172	15
173	66
174	33
175	104
176	44
177	28
179	15
185	27
187	142
188	71
189	506
191	126
192	31
199	27
200	18
201	90
202	361
203	156
204	58
206	23
207	69
208	18
212	31
214	47
215	21
216	16
218	53
219	30
220	24
221	18
227	21
228	13
229	20
232	19
233	25
234	182
235	36
239	52
240	13
241	33
242	11
243	11
255	19
256	16
257	13
262	24
269	9
270	7
271	11
272	10
279	10
286	8
300	7
326	6
340	5
341	6
342	4
346	3
356	17
358	9
370	12
371	7
374	12
375	6
377	9
384	15
393	14
395	58
396	19
408	101
409	46
410	783
411	279
412	56
413	11
424	17
425	16
426	275
427	88
428	16
440	9
441	99
442	51
443	12
