Mass Spectrum: 3'H-Cycloprop(1,2)cholesta-1,4,6-trien-3-one, 1'-carboethoxy-1'-cyano-1.beta.,2.beta.-dihydro-
Formula: C32H45NO3
CAS: 75857-78-2
Molecular weight: 491
m/z	intensity
20	0
21	0
22	0
23	0
24	1
25	2
26	8
27	93
28	16
29	338
30	10
31	1
32	2
33	0
35	0
36	1
37	4
38	2
39	50
40	9
41	414
42	71
43	999
44	34
45	7
46	2
47	1
48	0
49	1
50	2
51	9
52	6
53	52
54	9
55	364
56	37
57	290
58	14
59	2
60	1
61	2
62	0
63	5
64	9
65	30
66	8
67	128
68	29
69	166
70	10
71	94
72	10
73	2
74	1
75	5
76	2
77	56
78	22
79	109
80	26
81	169
82	23
83	65
84	8
85	11
86	3
87	1
88	1
89	7
90	3
91	100
92	23
93	107
94	32
95	182
96	18
97	48
98	7
99	1
100	1
101	2
102	9
103	19
104	11
105	63
106	23
107	108
108	19
109	70
110	7
111	12
112	3
113	2
114	3
115	54
116	22
117	42
118	12
119	35
120	18
121	43
122	11
123	16
124	4
125	6
126	3
127	26
128	53
129	58
130	25
131	52
132	21
133	136
134	29
135	33
136	6
137	11
138	5
139	12
140	21
141	55
142	39
143	44
144	27
145	45
146	17
147	33
148	8
149	15
150	4
151	7
152	28
153	43
154	48
155	47
156	27
157	33
158	37
159	32
160	18
161	13
162	4
163	10
164	5
165	32
166	60
167	62
168	53
169	43
170	27
171	92
172	33
173	28
174	6
175	5
176	3
177	10
178	20
179	24
180	38
181	45
182	50
183	36
184	20
185	22
186	20
187	7
188	5
189	14
190	18
191	20
192	21
193	53
194	36
195	38
196	64
197	44
198	31
199	29
200	10
201	5
202	8
203	11
204	14
205	31
206	24
207	21
208	27
209	41
210	75
211	32
212	32
213	17
214	13
215	8
216	10
217	10
218	33
219	20
220	29
221	17
222	33
223	35
224	31
225	25
226	17
227	16
228	13
229	9
230	13
231	12
232	33
233	19
234	24
235	25
236	45
237	19
238	28
239	19
240	14
241	13
242	22
243	9
244	13
245	20
246	23
247	41
248	31
249	17
250	23
251	13
252	17
253	7
254	19
255	9
256	13
257	9
258	9
259	10
260	11
261	10
262	28
263	22
264	20
265	15
266	12
267	23
268	30
269	24
270	25
271	15
272	16
273	7
274	7
275	7
276	21
277	15
278	16
279	7
280	12
281	12
282	37
283	27
284	32
285	21
286	11
287	9
288	8
289	7
290	21
291	10
292	16
293	8
294	15
295	9
296	11
297	10
298	11
299	10
300	6
301	2
302	4
303	2
304	32
305	20
306	14
307	7
308	26
309	16
310	20
311	14
312	8
313	2
314	2
315	4
316	3
317	4
318	6
319	3
320	6
321	4
322	19
323	28
324	28
325	10
326	6
327	4
328	2
329	1
330	1
331	2
332	33
333	16
334	11
335	9
336	40
337	20
338	25
339	12
340	7
341	1
342	2
343	1
344	1
345	2
346	3
347	3
348	6
349	6
350	55
351	22
352	13
353	8
354	5
355	2
356	2
357	1
358	2
359	1
360	7
361	2
362	7
363	5
364	16
365	15
366	7
367	4
368	1
369	1
370	2
371	1
372	0
373	2
374	4
375	4
376	7
377	11
378	127
379	72
380	23
381	9
382	4
383	1
384	1
385	0
386	1
387	1
388	4
389	8
390	13
391	6
392	12
393	6
394	4
395	1
396	1
397	0
398	0
399	0
400	1
401	3
402	13
403	8
404	8
405	5
406	23
407	12
408	5
409	2
410	1
411	1
412	2
413	1
414	1
415	1
416	3
417	17
418	52
419	23
420	14
421	9
422	6
423	3
424	2
425	1
426	1
427	1
428	3
429	2
430	22
431	8
432	3
433	2
434	17
435	10
436	7
437	3
438	2
439	2
440	1
441	1
442	1
443	2
444	4
445	22
446	18
447	13
448	198
449	80
450	17
451	5
452	1
453	0
454	1
455	1
456	0
457	1
458	2
459	2
460	3
461	4
462	32
463	59
464	22
465	4
466	1
467	1
468	1
469	1
470	1
471	1
472	1
473	2
474	4
475	6
476	138
477	57
478	14
479	3
480	1
481	0
482	1
483	1
484	0
485	0
486	0
487	0
488	2
489	5
491	315
492	117
493	29
494	5
495	1
