Mass Spectrum: 1',1'-Dicarboethoxy-1.beta.,2.beta.-dihydro-3'H-cycloprop[1,2]cholesta-1,4,6-trien-3-one
Formula: C34H50O5
CAS: 75857-74-8
Molecular weight: 538
m/z	intensity
19	2
21	0
24	1
25	1
26	10
27	85
28	14
29	420
30	6
31	19
32	1
34	0
35	0
36	2
37	3
38	8
39	51
40	10
41	347
42	62
43	999
44	30
45	9
46	0
47	2
48	0
49	0
50	1
51	5
52	1
53	27
54	9
55	280
56	50
57	400
58	22
59	3
60	2
61	1
62	0
63	5
64	0
65	12
66	1
67	101
68	19
69	143
70	16
71	149
72	13
73	7
74	2
75	0
76	1
77	29
78	10
79	57
80	11
81	105
82	13
83	54
84	6
85	16
86	2
87	4
88	0
89	4
90	1
91	69
92	16
93	57
94	11
95	91
96	7
97	26
98	3
99	9
100	0
101	1
102	3
103	8
104	11
105	56
106	11
107	52
108	11
109	43
110	9
111	10
112	3
113	3
114	2
115	47
116	15
117	33
118	11
119	19
120	4
121	19
122	3
123	10
124	1
125	7
126	3
127	26
128	52
129	56
130	19
131	44
132	11
133	25
134	6
135	7
136	3
137	5
138	2
139	33
140	17
141	64
142	43
143	48
144	20
145	53
146	11
147	15
148	6
149	7
150	2
151	6
152	14
153	47
154	27
155	60
156	27
157	53
158	19
159	16
160	6
161	10
162	5
163	3
164	2
165	29
166	20
167	68
168	30
169	53
170	21
171	77
172	18
173	14
174	4
175	1
176	3
177	7
178	16
179	31
180	13
181	53
182	28
183	55
184	16
185	44
186	48
187	16
188	6
189	9
190	6
191	9
192	11
193	25
194	17
195	39
196	24
197	62
198	16
199	29
200	14
201	7
202	4
203	5
204	5
205	17
206	10
207	24
208	15
209	39
210	31
211	66
212	17
213	36
214	10
215	13
216	7
217	7
218	7
219	12
220	11
221	23
222	16
223	127
224	31
225	36
226	10
227	13
228	7
229	6
230	5
231	4
232	4
233	9
234	8
235	25
236	17
237	93
238	39
239	47
240	18
241	23
242	12
243	13
244	5
245	6
246	5
247	11
248	13
249	23
250	19
251	33
252	17
253	10
254	3
255	21
256	7
257	10
258	5
259	3
260	4
261	12
262	9
263	30
264	13
265	29
266	7
267	12
268	6
269	57
270	11
271	6
272	1
273	7
274	4
275	11
276	8
277	29
278	20
279	36
280	8
281	6
282	4
283	35
284	13
285	13
286	5
287	4
288	3
289	13
290	7
291	38
292	27
293	15
294	7
295	12
296	2
297	6
298	3
299	2
300	1
301	5
302	1
303	6
304	2
305	18
306	21
307	14
308	6
309	9
310	4
311	22
312	7
313	2
314	1
315	10
316	2
317	11
318	6
319	9
320	1
321	6
322	5
323	7
324	11
325	25
326	7
327	2
328	0
329	4
330	3
331	4
332	3
333	35
334	13
335	9
336	5
337	33
338	10
339	6
340	3
341	2
342	1
343	4
344	1
345	2
346	2
347	4
348	1
349	4
350	5
351	22
352	45
353	14
354	2
355	1
356	2
357	2
358	1
359	1
360	1
361	11
362	7
363	26
364	12
365	5
366	5
367	2
368	1
369	2
370	1
371	1
372	0
373	1
374	1
375	10
376	9
377	9
378	125
379	56
380	9
381	3
382	2
383	1
384	3
385	3
386	1
387	1
388	1
389	8
390	5
391	6
392	7
393	3
394	2
395	2
396	1
397	1
398	1
399	1
400	2
401	5
402	2
403	35
404	20
405	10
406	4
407	4
408	3
409	3
410	2
411	2
412	3
413	2
414	1
415	2
416	2
417	11
418	24
419	23
420	6
421	11
422	4
423	2
424	2
425	3
426	1
427	1
428	3
429	15
430	6
431	62
432	26
433	6
434	3
435	7
436	3
437	2
438	2
439	1
440	1
441	1
442	1
443	1
444	2
445	7
446	95
447	45
448	12
449	73
450	32
451	12
452	3
453	2
454	1
455	1
456	1
457	2
458	2
459	2
460	2
461	1
462	3
463	5
464	24
465	17
466	7
467	1
468	1
469	2
470	0
471	0
472	2
473	2
474	16
475	8
476	6
477	49
478	20
479	3
480	2
481	1
482	0
483	2
484	1
485	1
486	0
487	1
488	1
489	1
490	4
491	15
492	231
493	93
494	20
495	5
496	2
497	0
498	0
499	1
500	0
501	0
502	0
503	0
504	1
505	3
506	1
507	1
508	1
509	1
510	2
511	0
512	0
513	0
514	0
515	0
516	0
517	0
518	0
519	1
520	2
521	2
522	3
523	45
524	20
525	5
526	1
527	0
528	0
529	1
530	0
531	1
532	1
533	1
534	0
535	1
536	2
537	8
538	57
539	30
540	8
541	3
542	1
