Mass Spectrum: Cyclopentane, 1-methyl-3-(2-methyl-2-propenyl)-
Formula: C10H18
CAS: 75873-00-6
Molecular weight: 138
m/z	intensity
25	0
26	17
27	278
28	63
29	242
30	3
32	0
35	1
36	4
37	4
38	17
39	398
40	50
41	667
42	50
43	61
46	0
47	1
49	0
50	16
51	50
52	27
53	153
54	52
55	999
56	161
57	286
58	11
59	1
62	3
63	13
64	2
65	50
66	29
67	874
68	76
69	25
70	2
73	1
74	2
75	2
76	0
77	55
78	12
79	94
80	243
81	538
82	503
83	300
84	18
91	17
92	2
93	12
94	8
95	50
96	12
97	1
101	0
104	0
105	1
107	2
109	6
110	0
117	0
119	0
121	1
123	20
138	44
139	4
