Mass Spectrum: Cyclopentane, 1-methyl-3-(2-methyl-1-propenyl)-
Formula: C10H18
CAS: 75873-01-7
Molecular weight: 138
m/z	intensity
25	0
26	16
27	259
28	50
29	191
30	3
32	8
37	5
38	18
39	353
40	58
41	580
42	47
43	91
44	1
45	1
46	1
47	1
48	0
49	1
50	22
51	66
52	33
53	184
54	64
55	345
56	68
57	86
58	3
59	0
60	0
61	1
62	5
63	19
64	4
65	67
66	30
67	938
68	105
69	113
70	12
71	0
73	0
74	2
75	3
76	1
77	93
78	19
79	139
80	65
81	999
82	370
83	56
84	3
87	0
89	1
90	0
91	43
92	5
93	43
94	41
95	565
96	111
97	8
103	2
105	5
106	0
107	7
108	3
109	126
110	19
111	0
115	0
119	0
121	5
122	1
123	412
124	36
125	1
137	2
138	251
139	24
140	0
