Mass Spectrum: 2,2-Dichlorocyclopropanecarboxamide
Formula: C4H5Cl2NO
CAS: 75885-60-8
Molecular weight: 153
m/z	intensity
35	137
37	208
38	174
39	196
40	20
42	7
44	999
45	6
47	56
49	28
54	76
55	92
60	4
61	8
73	91
74	4
75	43
82	43
83	25
84	19
85	12
90	80
92	9
109	32
110	26
111	26
136	248
137	20
138	148
139	5
140	10
153	25
155	17
157	6
