Mass Spectrum: Butanedioic acid, 2-methyl-3-oxo-, diethyl ester
Formula: C9H14O5
CAS: 759-65-9
Molecular weight: 202
m/z	intensity
12	2
13	2
14	3
15	28
16	2
17	1
18	3
19	6
24	1
26	59
27	313
28	218
29	999
30	37
31	50
38	1
39	5
41	89
42	8
43	24
44	11
45	90
46	6
47	2
53	5
55	60
56	106
57	188
58	8
59	1
67	1
69	4
72	11
73	101
74	88
75	9
83	49
84	4
85	2
86	1
99	5
100	16
101	158
102	106
103	8
108	1
110	2
129	441
130	34
131	4
147	1
156	6
157	13
158	1
174	12
175	1
202	3
