Mass Spectrum: Propanedioic acid, (1-methyl-2-propenyl)-, diethyl ester
Formula: C11H18O4
CAS: 759-35-3
Molecular weight: 214
m/z	intensity
26	47
27	480
28	92
29	999
30	35
31	36
35	0
37	1
38	10
39	214
40	51
41	249
42	68
43	171
44	14
45	77
46	2
47	8
49	1
50	11
51	29
52	19
53	159
54	41
55	359
56	40
57	38
58	13
59	6
60	6
61	2
62	1
63	4
65	33
66	27
67	154
68	49
69	188
70	22
71	43
72	10
73	9
74	0
75	1
77	2
79	5
81	69
82	8
83	13
84	20
85	34
86	77
87	107
88	29
89	2
92	0
93	3
94	38
95	189
96	78
97	125
98	27
99	49
100	4
101	0
104	18
105	16
106	0
107	0
108	0
109	0
111	128
112	371
113	214
114	53
115	105
116	6
117	1
119	0
121	6
122	86
123	203
124	16
125	17
126	6
127	8
128	0
129	0
132	16
133	39
134	3
135	0
137	0
138	1
139	26
140	129
141	533
142	49
143	6
145	1
151	1
153	1
155	0
160	36
161	2
162	0
167	0
168	9
169	46
170	4
171	1
186	0
187	0
198	0
199	0
214	0
215	1
216	0
