Mass Spectrum: 3-Phenyl-4-benzoyl-2,6-dioxa-3-azabicyclo[3.3.0]-7-octene
Formula: C18H15NO3
CAS: 75907-31-2
Molecular weight: 293
m/z	intensity
39	210
41	40
43	170
50	110
51	350
52	50
68	170
69	40
76	50
77	999
78	100
81	40
93	50
104	240
105	750
106	70
115	110
116	40
117	50
122	280
142	150
143	110
170	350
171	680
172	90
225	40
293	50
