Mass Spectrum: 6-Methoxy-2-hexanol
Formula: C7H16O2
CAS: 75919-19-6
Molecular weight: 132
m/z	intensity
39	55
40	16
41	229
42	57
43	206
44	46
45	999
46	23
47	12
50	3
51	6
53	12
54	15
55	81
56	268
57	79
58	112
59	24
60	4
61	6
63	6
65	4
66	4
67	77
68	10
69	19
70	6
71	176
72	15
73	3
77	5
79	8
81	6
82	90
83	16
84	3
85	88
86	10
87	19
88	10
99	5
100	3
114	14
117	3
