Mass Spectrum: 5-Amino-2-benzyloxypyridine
Formula: C12H12N2O
CAS: 75926-65-7
Molecular weight: 200
m/z	intensity
41	17
42	4
43	2
44	0
45	1
47	4
48	2
49	16
50	14
51	40
52	59
53	54
54	152
55	15
56	2
57	0
61	2
62	11
63	42
64	13
65	138
66	23
67	10
68	2
69	2
70	0
71	0
73	0
74	2
75	2
76	3
77	17
78	4
79	4
80	5
81	100
82	13
84	17
85	1
86	13
87	1
88	2
89	46
90	27
91	999
92	77
93	12
94	63
95	32
96	2
97	1
99	1
104	1
105	4
106	2
107	2
109	79
110	14
111	1
115	3
116	1
117	2
118	2
119	0
121	2
122	1
123	45
124	3
127	2
128	1
129	0
130	1
141	0
143	2
144	3
145	1
154	3
155	2
156	2
157	0
158	1
169	2
170	1
171	10
172	3
181	2
182	4
183	9
184	6
185	3
197	1
198	2
199	167
200	427
201	57
202	4
