Mass Spectrum: Cyclohexanecarboxylic acid, 4-butyl-, 4-butoxy-2,3-dicyanophenyl ester
Formula: C23H30N2O3
CAS: 75941-46-7
Molecular weight: 382
m/z	intensity
27	91
28	47
29	278
39	75
41	409
42	29
43	107
53	43
55	410
56	54
57	322
58	15
65	12
67	130
69	275
70	22
71	46
77	21
79	42
81	209
83	999
84	67
95	54
96	96
97	340
98	25
104	15
109	29
110	19
124	13
125	47
131	9
132	19
138	112
139	374
140	46
153	14
160	191
161	71
167	228
168	26
216	11
217	10
