Mass Spectrum: Cyclohexanecarboxylic acid, 4-pentyl-, 2,3-dicyano-4-(pentyloxy)phenyl ester
Formula: C25H34N2O3
CAS: 75941-52-5
Molecular weight: 410
m/z	intensity
17	22
18	42
27	93
28	74
29	169
39	55
41	354
43	375
44	23
53	46
55	404
56	31
57	186
65	11
67	149
69	289
70	55
71	215
72	14
73	26
77	20
79	45
81	205
83	624
84	46
85	31
95	98
97	999
98	68
109	58
111	280
112	19
123	15
124	18
132	22
133	20
152	135
153	397
154	45
160	191
161	76
181	248
182	32
191	15
231	13
