Mass Spectrum: 2H-Pyran-2,4(3H)-dione, 6-(4-chlorophenyl)-3,3,5,5-tetramethyl-
Formula: C15H17ClO3
CAS: 75959-47-6
Molecular weight: 280
m/z	intensity
33	8
34	2
35	0
36	7
37	0
38	5
39	58
40	72
41	154
42	189
43	36
44	20
45	4
50	8
51	17
52	2
53	10
55	15
56	4
57	17
58	0
59	2
61	0
62	0
63	8
64	5
65	6
66	0
67	2
70	999
71	41
72	2
73	2
74	3
75	16
76	4
77	23
78	3
79	2
80	0
81	2
82	1
83	6
84	88
85	8
87	2
89	11
91	18
92	1
97	3
98	0
99	2
101	3
102	2
103	4
105	2
107	0
111	17
112	13
113	8
114	2
115	32
116	20
117	2
118	0
119	1
125	15
126	4
127	8
128	8
129	10
130	8
131	21
132	3
138	0
139	13
140	232
141	23
142	2
143	0
149	3
150	0
151	12
152	6
153	4
154	2
166	14
167	2
168	4
171	1
280	5
282	1
