Mass Spectrum: Oxane-2,4-dione, 6-(4-methoxyphenyl)-3,3,5,5-tetramethyl-
Formula: C16H20O4
CAS: 75959-46-5
Molecular weight: 276
m/z	intensity
33	4
34	0
36	0
39	81
41	201
42	183
43	29
44	3
45	4
50	9
51	21
52	5
53	13
55	16
56	2
57	1
58	0
59	5
60	0
63	18
64	12
65	21
66	5
67	3
70	999
74	2
75	3
77	57
78	14
79	9
80	1
81	2
84	124
87	2
89	6
91	43
92	16
93	5
94	5
95	1
96	0
97	3
98	0
99	0
101	0
102	4
103	12
104	5
105	5
107	12
108	3
109	8
110	0
111	1
112	11
113	1
115	15
116	5
117	8
118	2
119	6
121	20
122	1
123	0
124	0
125	0
127	2
128	3
129	4
130	2
131	8
132	3
133	1
135	47
136	27
137	85
138	8
140	173
141	13
142	1
143	0
144	0
145	3
146	4
147	26
148	3
149	8
150	0
158	0
159	1
161	8
162	16
163	2
177	0
178	1
206	0
248	0
272	0
273	0
276	39
277	6
278	0
