Mass Spectrum: 4-Isoquinolinol, 1-(1,3-benzodioxol-5-ylmethyl)-1,2,3,4-tetrahydro-6,7-dimethoxy-2-(phenylmethyl)-4-(2-pyrrolidinyl)-
Formula: C30H34N2O5
CAS: 75969-98-1
Molecular weight: 502
m/z	intensity
26	4
27	13
28	40
29	6
30	13
31	1
36	2
37	3
38	9
39	36
40	8
41	71
42	29
43	48
44	6
45	3
49	2
50	18
51	63
52	13
53	11
54	6
55	14
56	7
57	8
58	2
61	3
62	10
63	22
64	8
65	74
66	7
67	9
68	34
69	39
70	544
71	36
72	2
73	2
74	4
75	11
76	14
77	115
78	31
79	23
80	6
81	5
82	16
83	14
84	78
85	9
86	3
87	3
88	5
89	22
90	23
91	999
92	99
93	9
94	3
95	6
96	5
97	8
98	87
99	9
100	2
101	3
102	6
103	13
104	17
105	69
106	33
107	13
108	4
109	4
110	3
111	6
112	2
113	4
114	4
115	10
116	14
117	16
118	13
119	12
120	48
121	12
122	6
123	4
124	3
125	3
126	5
127	5
128	8
129	9
130	8
131	10
132	12
133	17
134	20
135	193
136	45
137	7
138	4
139	12
140	8
141	7
142	7
143	7
144	8
145	16
146	25
147	17
148	13
149	19
150	8
151	14
152	9
153	7
154	5
155	5
156	5
157	6
158	10
159	21
160	20
161	21
162	35
163	20
164	13
165	13
166	6
167	7
168	7
169	13
170	7
171	9
172	7
173	7
174	22
175	14
176	20
177	19
178	33
179	13
180	8
181	8
182	5
183	7
184	6
185	6
186	7
187	5
188	12
189	37
190	121
191	158
193	16
194	5
195	4
196	5
197	6
198	6
199	7
200	7
201	5
202	10
203	8
204	12
205	33
206	377
207	218
208	260
209	36
210	7
211	5
212	5
213	5
214	13
215	15
216	13
217	5
218	7
219	9
220	23
221	7
222	4
223	4
224	4
225	7
226	4
227	5
228	10
229	14
230	76
231	16
232	6
233	3
234	4
235	4
236	4
237	3
238	4
239	5
240	5
241	7
242	12
243	8
244	10
245	7
246	32
247	9
248	11
249	5
250	4
251	3
252	4
253	8
255	7
256	9
257	19
258	14
259	35
260	10
261	4
262	7
263	4
264	5
265	4
266	14
267	7
268	7
269	3
271	3
275	6
276	4
277	44
278	13
279	7
280	337
281	79
282	32
283	14
284	5
285	3
289	8
290	3
291	3
292	4
293	4
294	7
295	17
296	454
297	137
298	929
299	214
300	28
301	4
303	2
304	3
305	2
306	7
307	3
308	6
309	3
310	11
311	7
312	20
313	36
314	11
315	3
320	3
321	2
322	11
323	9
324	12
325	5
326	38
327	9
328	14
329	3
331	3
332	4
333	5
334	4
335	3
336	3
337	3
338	9
339	7
340	9
341	6
342	9
343	16
344	4
345	4
346	3
347	71
348	25
349	268
350	71
351	29
352	7
353	4
360	3
361	3
362	4
363	17
364	7
365	45
366	15
367	628
368	172
369	26
370	3
375	4
376	2
377	11
378	4
379	5
380	2
381	11
382	5
389	6
390	4
391	7
392	7
393	4
394	3
395	7
396	3
411	2
412	2
413	5
414	4
415	2
416	2
429	2
430	3
431	13
432	13
433	26
434	7
435	2
447	5
448	2
467	1
483	1
503	0
