Mass Spectrum: Bicyclo[3.2.0]hept-2-ene, 7-methylene-
Formula: C8H10
CAS: 75960-14-4
Molecular weight: 106
m/z	intensity
37	15
38	63
39	482
40	135
41	90
42	6
43	8
45	0
46	0
49	3
50	77
51	177
52	79
53	56
54	13
55	4
57	1
59	2
60	0
61	6
62	24
63	72
64	20
65	197
66	735
67	58
68	2
71	11
73	2
74	14
75	14
76	10
77	182
78	843
79	208
80	17
81	2
82	1
85	0
86	1
87	1
89	13
90	5
91	999
92	77
93	3
94	1
98	1
101	2
102	7
103	50
104	12
105	185
106	54
107	6
108	1
