Mass Spectrum: 4-Amino-2-bromopyridine
Formula: C5H5BrN2
CAS: 7598-35-8
Molecular weight: 172
m/z	intensity
40	14
41	14
52	31
66	296
67	31
93	999
94	14
172	583
174	534
