Mass Spectrum: (5E,7E)-Dodecadienal
Formula: C12H20O
CAS: 75983-35-6
Molecular weight: 180
m/z	intensity
41	200
43	80
53	40
54	90
55	150
65	50
66	140
67	710
68	140
69	100
77	150
78	180
79	950
80	999
81	360
82	160
83	40
91	150
92	20
93	480
94	200
95	280
96	50
97	60
98	400
107	80
109	80
110	10
123	210
136	470
137	130
151	70
180	420
181	60
