Mass Spectrum: Acetamide, 2-(1-pyrrolidinyl)-N-(3-chlorophenyl)-
Formula: C12H15ClN2O
CAS: 75997-68-1
Molecular weight: 238
m/z	intensity
33	8
36	9
38	36
39	21
42	246
44	5
45	0
47	0
49	0
50	3
51	6
53	8
55	95
56	22
57	6
59	0
60	0
61	0
62	2
63	7
64	15
65	4
67	3
68	2
70	56
73	5
75	12
76	2
77	3
78	1
80	3
82	16
84	999
87	0
88	0
89	1
90	7
91	8
93	1
99	17
101	5
102	0
104	1
105	1
106	0
109	0
111	10
113	4
114	0
116	0
117	0
118	0
119	0
125	1
126	6
127	3
128	2
129	1
130	0
131	0
132	0
133	0
134	0
137	0
138	0
139	0
140	2
141	0
142	0
145	0
151	0
152	0
153	0
154	0
155	0
156	0
165	0
166	0
167	0
168	2
169	0
170	0
180	0
182	0
236	0
238	6
240	2
241	0
