Mass Spectrum: Camphor
Formula: C10H16O
CAS: 76-22-2
Molecular weight: 152
m/z	intensity
26	34
27	348
28	37
29	171
30	4
31	1
37	6
38	20
39	335
40	69
41	794
42	60
43	99
44	5
45	3
49	1
50	23
51	60
52	29
53	154
54	40
55	376
56	24
57	14
59	2
61	1
62	5
63	15
64	4
65	43
66	21
67	218
68	163
69	386
70	28
71	4
74	2
75	2
77	65
78	15
79	63
80	143
81	739
82	131
83	331
84	27
89	1
91	44
92	7
93	91
94	18
95	999
96	76
97	51
98	3
103	1
105	5
106	1
107	12
108	388
109	282
110	144
111	14
119	6
121	3
123	9
124	12
136	1
137	35
138	2
139	1
152	272
153	32
154	2
