Mass Spectrum: 1-Propanol, 2-methyl-2-nitro-
Formula: C4H9NO3
CAS: 76-39-1
Molecular weight: 119
m/z	intensity
15	19
26	5
27	216
28	100
29	452
30	210
31	537
32	30
38	35
39	380
40	84
41	452
42	148
43	484
44	30
45	403
46	39
53	78
54	10
55	999
56	54
57	260
58	34
59	178
71	3
72	84
73	948
74	38
89	156
