Mass Spectrum: Protoverine
Formula: C27H43NO9
CAS: 76-45-9
Molecular weight: 525
m/z	intensity
41	69
42	42
43	198
44	535
45	210
46	141
47	7
51	19
53	7
54	7
55	80
56	33
57	67
60	86
61	7
64	20
65	7
67	22
68	22
69	46
70	33
71	39
73	35
74	9
77	39
78	85
79	22
81	29
82	30
83	35
84	24
85	29
87	21
91	32
94	8
95	19
96	30
97	31
98	145
99	24
100	24
105	22
106	60
107	12
109	8
110	28
111	164
112	999
113	85
115	16
119	7
121	11
123	8
124	76
125	23
126	7
127	7
128	7
129	22
131	7
136	8
138	7
141	8
143	8
149	19
150	8
153	7
154	11
155	7
156	7
162	10
164	8
165	7
173	7
180	8
262	18
454	20
456	20
471	102
472	57
473	9
489	121
490	40
491	8
507	16
525	16
