Mass Spectrum: Bromthymol Blue
Formula: C27H28Br2O5S
CAS: 76-59-5
Molecular weight: 622
m/z	intensity
15	5
17	6
18	65
27	128
28	393
29	72
30	3
32	250
34	7
35	4
36	53
38	25
39	113
40	48
41	362
42	35
43	999
44	142
45	26
48	14
49	17
50	30
51	82
52	29
53	107
54	17
55	132
56	19
57	29
59	11
60	21
61	3
62	14
63	50
64	48
65	112
66	26
67	271
68	27
69	95
70	19
71	30
73	31
74	24
75	43
76	76
77	337
78	130
79	157
80	105
81	65
82	98
83	70
84	31
85	18
86	25
87	56
88	28
89	86
90	23
91	208
92	47
93	36
94	11
95	40
96	27
97	45
98	19
99	7
100	20
101	74
102	51
103	141
104	131
105	251
106	43
107	56
108	32
109	41
110	34
111	22
112	27
113	108
114	63
115	196
116	43
117	57
118	37
119	32
120	131
121	75
122	21
123	14
124	12
125	81
126	188
127	79
128	98
129	63
130	25
132	219
133	265
134	116
135	60
136	36
137	80
138	260
139	134
140	80
141	87
142	48
144	52
145	144
146	117
147	140
148	154
149	73
150	101
151	104
152	180
153	252
154	88
155	81
156	5
157	40
158	25
159	40
160	40
161	57
162	77
163	78
164	96
165	228
166	66
167	33
169	107
170	59
171	31
172	11
173	14
174	14
175	60
176	99
177	82
178	136
179	65
180	25
181	86
182	41
183	18
184	21
185	35
186	12
187	36
188	43
189	174
190	77
191	84
192	43
193	44
194	77
195	56
196	33
197	18
198	6
199	28
200	83
201	78
202	212
203	104
204	33
205	65
206	31
207	56
208	71
209	109
210	118
211	55
212	42
213	128
214	74
215	148
216	90
217	80
218	60
219	76
220	58
221	79
222	28
223	38
224	49
225	45
226	127
227	83
228	172
229	58
230	101
231	48
232	35
233	27
234	22
235	45
236	61
237	62
238	33
239	172
240	73
241	66
242	46
243	82
244	31
245	54
246	12
247	7
248	24
249	43
250	93
251	81
252	127
253	90
254	34
255	155
256	72
257	120
258	39
259	21
260	5
261	20
262	9
263	104
264	84
265	116
266	53
267	40
268	77
269	85
270	40
271	37
272	31
273	36
274	33
275	35
276	70
277	56
278	27
279	63
280	37
281	105
282	93
283	71
284	92
285	46
286	15
287	39
288	35
289	62
290	44
291	38
292	48
293	56
294	35
295	59
296	72
297	125
298	127
299	82
300	38
301	46
302	41
303	28
304	37
305	32
306	25
307	31
308	37
309	52
310	61
311	68
312	32
313	42
314	27
315	134
316	41
317	110
318	25
319	14
320	8
321	17
322	11
323	30
324	36
325	42
326	34
327	20
328	4
329	8
330	18
331	18
332	19
333	22
334	5
335	17
336	10
337	16
338	9
339	15
340	11
341	12
342	5
345	2
346	16
347	15
348	21
349	17
350	6
351	11
352	3
353	14
354	2
355	6
359	10
360	8
361	23
362	59
363	40
364	57
365	33
366	9
367	3
372	2
373	10
374	6
375	28
376	29
377	41
378	44
379	79
380	30
381	61
382	11
387	10
388	16
389	32
390	31
391	35
392	27
393	208
394	262
395	315
396	283
397	135
398	32
399	9
403	14
404	18
405	41
406	27
407	27
408	5
417	3
418	4
419	16
420	21
421	34
422	22
423	21
433	11
435	11
441	2
443	6
444	18
445	7
446	18
447	26
448	16
449	23
450	11
455	3
457	9
458	36
459	16
460	32
461	16
462	38
463	75
464	54
465	75
466	20
467	12
469	7
470	3
471	7
472	3
485	14
486	26
487	14
488	22
499	164
500	94
501	313
502	125
503	166
504	42
513	9
515	8
523	13
525	37
526	10
527	91
528	52
529	138
530	60
531	71
532	17
537	15
539	34
540	5
541	47
542	18
543	85
544	38
545	80
546	26
547	24
567	10
579	42
580	9
581	82
582	20
583	46
584	8
607	92
608	26
609	183
610	53
611	102
612	27
613	2
622	66
623	23
624	135
625	42
626	72
627	19
