Mass Spectrum: Bornyl isovalerate
Formula: C15H26O2
CAS: 76-50-6
Molecular weight: 238
m/z	intensity
26	6
27	114
29	173
30	2
31	4
32	6
38	3
39	109
41	573
42	50
43	234
44	7
45	10
50	4
51	14
52	7
53	78
54	13
55	192
56	31
57	999
58	46
59	16
60	21
61	2
63	3
64	1
65	24
66	11
67	162
68	59
69	193
70	19
71	28
72	17
73	1
75	1
77	63
78	14
79	88
80	94
81	233
82	65
83	58
84	20
85	953
86	54
87	6
91	59
92	112
93	376
94	68
95	634
96	54
97	18
98	5
99	3
103	4
105	17
106	7
107	89
108	366
109	362
110	249
111	56
112	5
113	3
115	2
119	6
120	3
121	325
122	35
123	21
124	2
125	6
127	2
128	4
129	5
134	2
135	36
136	740
137	243
138	22
139	16
140	2
152	14
153	40
154	111
155	15
156	2
223	7
238	50
239	10
