Mass Spectrum: 3',3'',5',5''-Tetrabromo-m-cresolsulfonephthalein
Formula: C21H14Br4O5S
CAS: 76-60-8
Molecular weight: 694
m/z	intensity
41	111
43	147
44	67
45	45
48	624
50	100
51	115
52	30
53	72
55	90
56	30
57	67
60	31
62	23
63	61
64	999
65	46
66	62
67	99
68	21
69	48
70	20
71	34
73	29
74	34
75	85
76	96
77	125
78	84
79	183
80	390
81	174
82	374
83	36
84	24
85	24
86	22
87	42
88	26
89	26
91	30
93	43
94	65
95	25
97	30
98	28
99	43
100	67
101	45
104	33
105	66
106	91
107	184
109	22
111	44
112	141
113	193
115	39
118	257
120	287
121	94
122	68
123	24
124	36
125	94
126	93
128	128
129	26
131	29
133	45
134	153
135	109
137	27
138	20
139	47
140	30
141	27
142	43
147	21
148	43
149	123
150	68
151	58
152	99
153	63
155	27
156	31
157	57
158	30
161	21
162	26
163	113
164	68
165	97
166	35
167	18
168	18
174	74
175	44
176	35
180	21
181	67
182	35
183	19
184	18
185	34
186	40
187	76
188	68
189	118
193	25
197	24
198	25
199	38
200	80
201	47
202	55
209	22
211	48
212	24
213	90
214	22
215	58
221	18
222	29
223	28
224	114
225	72
226	170
227	57
228	32
229	37
235	31
236	23
237	136
238	58
239	216
240	68
241	39
242	27
243	22
245	19
250	31
252	21
253	37
254	23
255	139
256	22
257	19
259	19
265	19
266	34
267	35
268	110
269	126
270	64
272	32
273	21
274	24
275	20
279	20
281	32
283	22
284	22
287	27
289	31
290	22
291	25
293	32
295	23
297	25
298	53
299	20
308	21
309	52
333	44
334	27
335	46
336	25
346	22
347	34
348	35
349	49
350	30
351	61
352	25
353	90
354	21
355	44
362	54
363	24
364	49
365	19
376	31
377	39
378	41
379	33
413	18
415	36
417	43
419	23
428	36
429	22
430	61
431	35
432	49
433	33
442	21
443	24
456	70
457	58
458	121
459	76
460	71
461	37
535	39
536	59
537	103
538	93
539	109
540	63
541	40
603	20
614	36
615	29
616	91
617	50
618	107
619	51
620	60
621	23
694	12
696	18
698	18
700	12
