Mass Spectrum: Quassin
Formula: C22H28O6
CAS: 76-78-8
Molecular weight: 388
m/z	intensity
41	735
43	999
44	281
45	244
47	73
49	213
50	40
51	140
52	46
53	249
54	94
55	510
56	103
57	293
58	81
59	161
60	132
61	39
65	129
66	54
67	236
68	85
69	806
70	98
71	201
73	96
74	42
77	298
78	89
79	291
80	69
81	160
82	128
83	195
84	227
85	219
86	119
87	60
88	37
91	399
92	77
93	138
94	62
95	194
96	64
97	134
98	85
99	96
100	41
101	62
103	67
105	232
106	72
107	212
108	164
109	162
110	66
111	151
112	77
113	89
114	38
115	138
116	50
117	89
118	37
119	152
120	71
121	253
122	123
123	172
124	81
125	115
126	79
127	369
128	106
129	126
130	45
131	83
132	38
133	100
134	55
135	152
136	75
137	204
138	90
139	89
140	54
141	89
142	63
143	103
144	45
145	104
146	42
147	77
148	39
149	112
150	81
151	287
152	642
153	236
154	138
155	71
156	41
157	85
158	47
159	106
160	40
161	84
162	38
163	94
164	61
165	310
166	159
167	109
168	82
169	60
171	95
172	47
173	98
174	46
175	81
176	41
177	103
178	91
179	152
180	69
181	86
182	47
183	58
185	88
186	45
187	90
188	42
189	109
190	49
191	83
192	62
193	75
194	65
195	88
196	77
197	60
198	143
199	78
200	37
201	72
202	42
203	94
204	39
205	90
206	60
207	81
209	68
210	37
211	68
213	63
215	69
216	41
217	88
218	48
219	66
220	66
221	60
222	37
223	72
225	63
226	42
227	65
229	65
231	62
233	40
235	48
237	52
239	59
241	52
243	67
245	64
247	53
249	45
251	38
253	56
255	84
257	90
261	39
263	49
264	55
265	59
267	48
269	127
270	50
271	74
273	41
279	40
281	58
283	43
285	66
287	84
288	38
295	40
297	60
299	58
301	51
302	346
303	101
305	37
311	42
313	101
315	79
318	39
327	40
328	44
329	110
330	61
331	46
332	46
343	59
345	40
346	38
348	38
357	100
358	48
359	48
360	55
373	168
374	89
375	62
376	14
377	12
378	11
386	38
388	272
389	71
