Mass Spectrum: 1-Pentene, 3-methyl-
Formula: C6H12
CAS: 760-20-3
Molecular weight: 84
m/z	intensity
15	44
26	71
27	394
28	38
29	285
37	14
38	47
39	429
40	78
41	752
42	177
43	57
50	61
51	86
52	33
53	178
54	112
55	999
56	435
57	28
63	13
65	21
66	12
67	64
69	885
70	49
84	325
85	21
