Mass Spectrum: 1-Hepten-5-yne, 2-methyl-3-methylene-
Formula: C9H12
CAS: 76003-40-2
Molecular weight: 120
m/z	intensity
24	0
25	2
26	20
27	217
28	3
29	3
36	1
37	10
38	24
39	309
40	56
41	347
42	10
43	4
44	1
45	2
46	2
48	1
49	5
50	58
51	157
52	71
53	100
54	22
55	11
56	1
57	4
58	19
59	5
60	5
61	6
62	15
63	47
64	12
65	115
66	46
67	69
68	5
69	7
70	1
71	1
72	0
73	0
74	10
75	13
76	9
77	267
78	57
79	331
80	32
81	4
82	2
84	1
85	0
86	3
87	1
89	8
90	3
91	330
92	47
93	16
94	1
96	1
98	2
99	2
101	8
102	9
103	117
104	68
105	999
106	83
107	3
109	1
113	2
114	0
115	18
116	7
117	30
118	9
119	75
120	101
121	10
