Mass Spectrum: N,N-Diethyl-N'-[4-[[4-[trifluoromethyl]phenyl]amino]-2-quinazolinyl]-ethane-1,2-diamine
Formula: C21H24F3N5
CAS: 76005-34-0
Molecular weight: 403
m/z	intensity
41	2
42	35
43	15
44	9
45	1
47	9
48	3
49	41
51	20
52	1
53	1
54	4
55	8
56	29
57	19
58	64
59	3
60	1
62	1
63	4
64	2
65	4
67	4
68	1
69	7
70	17
71	31
72	9
73	1
74	1
75	6
76	4
77	6
78	1
79	0
81	1
82	1
84	59
86	999
87	58
88	4
89	2
90	13
91	5
92	3
95	7
96	1
97	1
98	5
99	268
100	20
102	18
103	5
104	1
105	0
107	1
109	1
111	2
113	4
114	4
115	1
116	5
117	7
118	5
119	2
120	1
124	1
125	5
126	5
127	1
129	17
130	2
131	2
133	2
134	0
135	0
139	1
140	4
141	1
142	3
143	9
144	10
145	29
146	2
149	0
151	1
152	1
155	1
156	2
157	1
158	1
159	1
160	3
161	7
162	0
165	1
167	1
170	1
171	1
172	1
177	0
185	1
186	1
191	1
192	2
193	1
194	1
197	1
200	3
201	6
202	1
203	0
206	0
213	1
215	1
217	1
218	1
219	4
220	10
221	1
223	1
234	1
235	3
236	0
241	3
247	1
248	4
259	0
261	1
262	3
263	5
264	0
266	2
267	1
268	12
269	1
275	6
276	1
277	1
283	1
284	2
285	1
286	5
287	5
288	44
289	18
290	3
296	0
297	1
302	3
303	22
304	42
305	481
306	84
307	6
309	1
313	2
314	1
315	4
316	1
317	56
318	17
319	2
320	11
321	1
322	2
327	0
329	11
330	4
331	23
332	7
333	9
334	1
357	1
364	7
365	1
374	2
375	2
377	1
384	1
387	1
388	2
402	1
403	6
404	4
405	1
