Mass Spectrum: Pseduosarsasapogenin-5,20-dien methyl ether
Formula: C28H44O3
CAS: 7604-99-1
Molecular weight: 428
m/z	intensity
41	299
43	506
45	320
47	27
49	66
50	2
51	32
53	99
55	623
57	312
59	99
60	4
61	7
63	4
65	42
67	204
68	43
69	195
71	76
73	999
74	40
75	13
77	100
79	175
81	204
82	29
83	57
84	45
85	111
86	34
87	23
88	10
89	4
91	211
93	233
94	47
95	162
96	50
97	132
98	74
99	23
100	4
101	5
103	21
105	223
106	47
107	140
108	47
109	72
110	13
111	31
112	7
113	17
115	64
116	16
117	67
118	21
119	84
120	37
121	110
122	51
123	37
124	20
125	23
126	15
127	7
128	29
129	106
130	20
131	68
132	12
133	107
134	23
135	39
136	11
137	15
138	3
139	46
140	8
141	16
142	20
143	54
144	25
145	90
146	26
147	91
148	15
149	20
150	9
151	12
152	2
153	41
154	8
155	21
156	6
157	67
158	50
159	61
160	31
161	95
162	25
163	33
164	14
165	11
166	4
167	7
168	5
169	14
170	8
171	35
172	15
173	30
174	17
175	39
176	22
177	15
178	6
179	3
181	6
182	5
183	14
184	6
185	30
186	10
187	16
188	8
189	15
190	4
191	3
192	2
193	2
195	10
196	5
197	22
198	7
199	17
200	5
201	6
202	2
203	3
204	2
205	2
209	3
211	11
212	9
213	17
214	14
215	17
216	7
217	5
218	3
223	3
225	12
226	4
227	13
228	4
229	5
230	9
231	6
232	4
237	5
238	2
239	5
240	4
241	11
242	5
243	7
244	2
245	3
247	2
251	4
253	48
254	11
255	4
256	3
257	5
258	22
259	4
265	2
267	59
268	12
269	14
271	111
272	22
273	6
274	2
282	33
283	11
285	47
286	9
287	6
298	11
300	60
301	11
302	2
314	7
315	5
316	4
327	3
329	5
331	2
333	2
341	5
342	11
343	4
345	8
354	5
355	107
356	56
357	14
359	42
360	6
369	7
371	9
372	3
381	3
383	2
385	4
395	2
396	21
397	19
399	9
410	2
411	2
412	3
413	6
414	4
416	2
426	3
427	3
428	51
429	15
