Mass Spectrum: 2-((Phenylthio)methyl)-2-cyclopenten-1-one
Formula: C12H12OS
CAS: 76047-52-4
Molecular weight: 204
m/z	intensity
18	0
26	24
27	186
28	32
29	10
31	10
32	10
37	16
38	44
39	370
40	77
41	357
42	24
43	21
45	98
47	5
50	61
51	151
52	34
53	269
54	18
55	49
57	19
58	32
59	17
61	10
62	28
63	71
64	14
65	607
66	306
67	999
68	56
69	139
70	14
71	36
73	5
74	26
75	16
76	12
77	109
78	27
79	10
81	20
82	34
83	19
84	77
85	31
86	1
89	1
91	37
93	12
94	75
95	208
96	17
97	43
98	23
99	17
102	12
103	6
105	6
108	44
109	254
110	843
111	83
112	45
113	19
115	40
116	6
121	8
123	23
126	121
127	101
128	110
129	276
130	28
134	19
135	11
141	15
142	7
143	45
147	72
148	23
149	5
153	1
160	20
161	34
162	7
171	249
172	31
175	6
176	16
185	11
186	6
187	12
189	17
203	32
204	705
205	98
206	41
207	1
