Mass Spectrum: Isoquinoline, 2-(2,2-dimethyl-1-oxopropyl)-1,2,3,4-tetrahydro-1-methyl-
Formula: C15H21NO
CAS: 76068-85-4
Molecular weight: 231
m/z	intensity
26	1
27	39
28	3
29	123
31	18
34	1
37	0
38	2
39	53
40	7
41	174
42	33
43	34
44	3
45	7
47	0
50	7
51	24
52	7
53	17
54	5
55	27
56	19
57	999
58	42
59	3
60	0
61	1
62	2
63	13
64	4
65	19
66	3
67	4
68	4
69	23
70	12
71	10
72	1
73	2
74	2
75	32
76	8
77	59
78	22
79	18
80	2
81	3
82	4
83	9
84	5
85	137
86	10
87	3
88	1
89	14
90	9
91	116
92	12
93	2
94	2
95	3
96	1
97	5
98	2
99	1
101	7
102	18
103	49
104	31
105	45
106	5
107	2
108	1
109	2
110	1
111	3
112	2
113	2
114	9
115	64
116	46
117	101
118	70
119	27
120	4
121	4
123	1
126	1
127	7
128	23
129	33
130	106
131	558
132	500
133	53
134	6
135	5
136	1
137	1
139	1
140	1
142	2
143	5
144	30
145	31
146	106
147	16
148	14
149	5
150	2
151	2
156	2
157	1
158	2
159	3
160	36
161	9
162	6
163	1
164	1
165	1
168	1
171	4
172	1
173	1
174	249
175	35
176	5
177	5
178	1
185	9
186	3
187	1
188	9
189	2
190	6
191	1
200	1
205	3
206	0
209	1
215	3
216	440
217	64
218	6
219	4
220	1
227	2
229	1
230	4
231	354
232	66
233	6
234	1
