Mass Spectrum: Furan-3,3,4-tricarbonitrile, 2,3-dihydro5-amino-2-methyl-
Formula: C8H6N4O
CAS: 76088-21-6
Molecular weight: 174
m/z	intensity
33	0
34	0
36	8
37	39
38	91
39	73
40	39
41	36
42	65
43	353
44	649
45	999
46	19
48	9
49	13
50	55
51	102
52	83
53	73
54	120
55	30
56	4
57	4
58	0
59	0
60	1
61	3
62	27
63	30
64	41
65	29
66	50
67	12
68	5
69	5
70	7
71	2
72	0
74	6
75	35
76	183
77	332
78	128
79	22
80	4
81	8
82	13
83	8
84	2
85	0
86	0
88	9
89	12
90	5
91	17
92	17
93	17
94	2
95	3
96	0
97	0
98	0
99	0
100	3
101	8
102	54
103	164
104	194
105	99
106	21
107	2
108	2
109	2
110	0
111	0
112	1
113	0
114	0
115	1
116	1
117	1
118	17
119	21
120	17
121	20
122	2
123	0
125	0
126	0
127	0
128	2
130	531
131	194
132	33
133	6
134	2
135	0
143	0
145	103
146	39
147	57
148	92
149	8
150	0
152	0
156	1
157	0
158	2
159	1
171	2
172	1
174	276
175	28
176	1
