Mass Spectrum: 2-(1-Ethoxycarbonyl-1,4-dihydropyridin-4-ylidene)indan-1,3-dione
Formula: C17H13NO4
CAS: 76080-29-0
Molecular weight: 295
m/z	intensity
12	2
13	1
14	4
15	22
16	5
17	7
18	25
19	1
25	1
26	29
27	273
28	70
29	999
30	31
31	6
37	5
38	8
39	37
40	4
41	11
42	5
43	16
44	26
45	11
46	1
49	1
50	69
51	49
52	13
53	6
54	6
55	7
56	4
57	4
60	1
61	6
62	47
63	124
64	28
65	17
66	4
67	3
68	1
70	34
73	4
74	36
75	59
76	152
77	56
78	21
79	8
80	2
81	1
83	9
85	3
86	21
87	33
88	30
89	51
90	19
91	22
92	4
93	3
97	6
98	10
99	13
100	9
101	8
102	5
103	5
104	31
105	30
106	8
110	5
111	12
112	8
113	49
114	19
115	12
116	5
117	4
118	6
119	3
120	1
122	1
123	2
124	2
125	9
126	10
127	12
128	13
129	3
130	2
133	7
134	1
135	2
137	23
138	42
139	237
140	95
141	12
142	2
146	3
149	5
150	11
151	16
152	17
153	9
154	65
155	60
156	8
164	23
165	23
166	227
167	101
168	33
169	4
176	2
177	5
178	18
179	8
180	14
181	5
182	10
183	19
184	3
192	1
193	4
194	90
195	51
196	18
197	4
204	4
205	2
206	6
207	4
208	9
209	4
222	370
223	392
224	60
225	5
232	5
233	2
234	1
236	22
237	3
250	143
251	97
252	14
253	1
267	28
268	5
295	295
296	60
297	7
