Mass Spectrum: Cis-2-methyl-4-n-butylthiane
Formula: C10H20S
CAS: 76097-67-1
Molecular weight: 172
m/z	intensity
51	50
52	40
53	170
54	90
55	999
56	140
57	90
58	30
59	190
60	200
61	310
62	20
63	20
65	50
66	20
67	310
68	120
69	530
70	130
71	30
72	10
73	160
74	180
75	270
76	30
77	70
78	140
79	70
80	20
81	660
82	260
83	210
84	40
85	50
86	10
87	510
88	90
89	40
91	10
93	10
95	190
96	175
97	75
98	20
99	40
101	270
102	30
103	20
109	190
110	80
111	40
112	40
113	20
115	280
116	60
117	30
123	60
129	410
130	60
131	20
143	750
144	110
145	40
157	720
158	90
159	40
171	40
172	720
173	86
174	36
175	4
