Mass Spectrum: trans-2-Methyl-4-n-butylthiane
Formula: C10H20S
CAS: 76097-70-6
Molecular weight: 172
m/z	intensity
51	40
52	20
53	210
54	100
55	999
56	130
57	80
58	40
59	210
60	200
61	300
62	20
63	20
65	60
66	20
67	360
68	110
69	470
70	100
71	40
72	10
73	150
74	150
75	225
76	20
77	50
79	70
80	20
81	610
82	200
83	180
84	50
85	60
86	20
87	530
88	100
89	50
91	20
93	20
95	200
96	140
97	80
99	50
100	10
101	270
102	40
103	30
109	150
110	60
111	20
112	20
113	30
114	10
115	210
116	40
117	20
123	50
129	430
130	50
131	30
143	680
144	80
145	40
157	630
158	80
159	40
171	30
172	590
173	71
174	30
175	3
