Mass Spectrum: Hexadecanoic acid, 1-(hydroxymethyl)-1,2-ethanediyl ester
Formula: C35H68O5
CAS: 761-35-3
Molecular weight: 568
m/z	intensity
25	8
26	39
27	179
28	137
29	330
30	20
31	42
36	16
37	10
38	16
39	116
40	34
41	641
42	188
43	999
44	245
45	75
46	8
47	5
48	4
49	5
50	11
51	17
52	12
53	56
54	104
55	801
56	273
57	952
58	75
59	38
60	500
61	160
62	12
63	16
64	25
65	21
66	25
67	207
68	119
69	481
70	188
71	490
72	36
73	603
74	150
75	43
76	9
77	32
78	23
79	66
80	47
81	198
82	160
83	377
84	377
85	330
86	33
87	113
88	27
89	10
90	5
91	44
92	19
93	50
94	35
95	188
96	99
97	301
98	613
99	116
100	53
101	74
102	29
103	13
104	14
105	29
106	12
107	30
108	27
109	84
110	56
111	160
112	207
113	73
114	21
115	91
116	339
117	79
118	16
119	23
120	12
121	37
122	18
123	45
124	31
125	59
126	50
127	37
128	21
129	396
130	42
131	21
132	9
133	18
134	44
135	54
136	16
137	27
138	23
139	32
140	33
141	40
142	22
143	42
144	14
145	15
146	9
147	16
148	9
149	29
150	11
151	17
152	19
153	21
154	37
155	24
156	10
157	51
158	20
159	12
160	12
161	7
162	6
163	12
164	8
165	15
166	16
167	17
168	25
169	14
170	8
171	70
172	15
173	12
174	5
175	5
176	9
177	11
178	9
179	11
180	9
181	11
182	24
183	10
184	5
185	77
186	15
187	6
188	4
189	5
190	6
191	10
192	9
193	9
194	26
195	14
196	21
197	16
198	6
199	23
200	9
201	5
202	6
203	7
204	6
205	7
206	5
207	17
208	7
209	10
210	10
211	8
212	5
213	99
214	18
215	7
216	4
217	8
218	9
219	22
220	13
221	8
222	6
223	6
224	5
225	6
226	4
227	33
228	10
229	6
230	4
231	5
232	4
233	4
234	5
235	5
236	12
237	16
238	47
239	433
240	77
241	21
242	6
243	4
244	4
245	4
246	4
247	4
248	7
249	5
250	5
251	6
252	6
253	8
254	6
255	14
256	169
257	48
258	9
259	4
260	4
261	4
262	4
263	5
264	6
265	5
266	6
267	7
268	5
269	25
270	15
271	6
272	4
273	5
274	5
275	4
276	4
277	4
278	4
279	6
280	7
281	7
282	5
283	14
284	10
285	6
286	4
287	4
290	4
291	3
292	4
293	3
294	5
295	5
296	10
297	16
298	7
299	51
300	15
301	5
302	4
303	4
304	4
305	4
306	4
307	4
308	4
309	4
310	5
311	16
312	38
313	150
314	30
315	8
316	4
317	3
318	4
325	4
326	3
327	4
328	3
329	3
330	4
331	33
332	10
333	4
334	3
340	3
341	6
342	4
343	3
354	28
355	11
356	5
357	5
358	4
367	16
368	6
369	4
372	6
373	4
374	3
380	3
381	4
382	4
383	3
401	4
409	4
410	3
411	3
415	3
423	7
424	4
425	3
437	3
438	3
451	4
452	3
507	5
508	4
509	3
537	4
538	3
550	26
551	15
552	6
553	3
568	3
