Mass Spectrum: 1-Pentanol, 5-[(tetrahydro-2H-pyran-2-yl)oxy]-
Formula: C10H20O3
CAS: 76102-74-4
Molecular weight: 188
m/z	intensity
26	8
27	99
28	26
29	188
30	7
31	177
33	1
36	0
37	1
38	1
39	63
40	56
41	510
42	39
43	158
44	55
45	49
46	1
47	10
50	1
51	3
52	1
53	21
54	13
55	139
56	320
57	163
58	12
59	7
60	1
61	1
62	0
63	0
65	3
66	1
67	138
68	56
69	733
70	37
71	11
72	1
73	5
74	16
75	1
76	0
77	3
78	0
79	1
80	1
81	3
82	2
83	37
84	148
85	999
86	70
87	303
88	16
89	1
90	0
91	0
93	1
94	0
95	1
96	1
97	1
98	7
99	3
100	4
101	211
102	21
103	55
104	4
105	12
106	1
109	1
111	1
112	1
113	1
114	1
115	12
116	12
117	1
118	0
122	1
123	0
124	0
125	0
127	1
128	1
129	3
130	3
131	1
133	1
140	1
142	0
143	1
149	0
156	0
157	0
158	1
159	1
169	0
170	3
171	1
185	0
187	2
188	1
189	1
