Mass Spectrum: 2,4,6-Trioxabicyclo[3.3.0]octane-5-carboxylic acid, 3,3-dimethyl-8-hydroxy-7-hydroxymethyl-, methyl ester
Formula: C10H16O7
CAS: 76110-72-0
Molecular weight: 248
m/z	intensity
41	106
43	613
44	3
45	78
47	51
48	3
49	228
50	12
51	78
52	1
53	18
55	217
56	135
57	135
59	999
61	47
62	11
63	1
64	0
65	2
66	1
67	8
68	42
69	151
71	653
72	15
73	272
74	218
75	25
76	4
77	5
78	1
79	2
80	0
81	3
82	11
83	88
84	134
85	97
86	98
87	57
88	18
89	8
90	2
91	2
92	0
93	0
95	37
96	4
97	14
98	3
99	32
100	6
101	30
102	7
103	79
104	3
105	2
106	0
107	2
108	0
109	2
110	1
111	26
112	2
113	225
114	15
115	10
116	4
117	6
118	7
119	12
120	0
121	1
122	0
123	1
125	1
126	1
127	12
128	2
129	38
130	4
131	62
132	10
133	2
134	0
135	1
136	0
137	0
139	2
140	1
141	42
142	9
143	235
144	20
145	11
146	1
147	1
148	0
149	1
150	0
151	4
152	0
153	13
154	1
155	33
156	3
157	4
158	248
159	91
160	9
161	3
162	0
163	1
164	5
165	1
167	1
168	0
169	1
170	0
171	4
172	4
173	89
174	7
175	2
176	0
177	1
179	0
181	3
182	0
183	1
185	17
186	2
187	9
188	4
189	108
190	11
191	114
192	9
193	2
194	0
195	1
196	0
197	1
198	0
199	4
200	46
201	8
202	2
203	4
204	0
205	2
206	0
207	0
209	0
210	0
211	0
213	3
214	0
215	137
216	13
217	20
218	3
219	7
220	1
221	0
222	0
223	1
224	4
225	0
226	0
227	1
228	0
229	1
230	0
231	181
232	26
233	292
234	38
235	14
236	1
237	0
238	0
239	0
240	0
241	0
242	0
243	0
244	0
245	6
246	5
247	3
248	240
249	38
250	7
