Mass Spectrum: Dibenzylamine, 4-methyl-4'-nitro-
Formula: C15H16N2O2
CAS: 76122-60-6
Molecular weight: 256
m/z	intensity
27	22
28	35
29	3
30	64
38	4
39	45
40	5
41	11
42	2
43	3
46	2
50	23
51	47
52	19
53	14
54	3
55	2
57	2
62	8
63	44
64	20
65	49
66	5
67	1
70	1
74	5
75	8
76	18
77	137
78	121
79	80
80	4
87	1
88	2
89	105
90	118
91	196
92	45
93	39
94	4
95	1
99	1
101	6
102	52
103	153
104	156
105	999
106	712
107	54
108	3
116	2
117	20
118	40
119	18
120	146
121	16
124	2
125	1
128	1
129	1
130	1
132	15
133	4
134	20
135	3
136	145
137	15
140	1
141	2
143	1
145	1
147	4
148	1
149	5
151	371
152	28
153	2
154	1
155	1
156	1
157	1
158	1
159	1
161	1
162	1
163	22
164	10
165	75
166	6
167	2
168	1
169	1
170	1
171	1
173	1
174	1
176	1
177	1
180	2
181	1
182	1
183	1
184	1
185	1
186	1
187	1
188	1
189	1
191	1
192	1
193	3
195	1
196	1
208	2
209	29
210	5
213	1
214	1
217	1
219	1
225	2
226	2
227	1
239	5
240	2
241	88
242	13
255	380
256	243
257	35
