Mass Spectrum: N,N'-Bis(carbobenzyloxy)-4-keto-l-lysine amide
Formula: C22H25N3O6
CAS: 7612-91-1
Molecular weight: 427
m/z	intensity
41	5
42	8
43	18
44	29
49	5
50	4
51	14
52	3
55	9
56	3
57	1
62	2
63	11
64	2
65	57
66	1
69	3
70	13
71	1
72	4
73	4
74	3
77	23
78	5
79	22
80	3
83	1
84	5
85	3
86	7
87	1
89	22
90	10
91	999
92	75
96	4
97	6
98	23
99	1
100	5
105	9
106	4
107	35
108	27
109	1
110	1
113	1
114	6
115	1
116	6
117	1
120	35
121	1
123	4
125	1
126	3
132	2
134	1
141	23
142	1
143	3
151	4
152	6
155	1
157	12
160	11
163	1
167	8
168	5
169	20
170	1
171	3
176	10
180	9
181	16
182	1
185	4
186	43
187	4
188	44
189	6
204	1
207	7
208	1
210	3
212	4
213	8
214	1
215	15
224	6
230	24
231	8
232	31
233	2
266	4
274	1
275	2
278	10
293	8
318	13
319	7
320	1
336	7
383	121
384	31
385	4
427	2
