Mass Spectrum: Hexadeca-2,6,10,14-tetraen-1-ol, 3,7,11,16-tetramethyl-
Formula: C20H34O
CAS: 7614-21-3
Molecular weight: 290
m/z	intensity
14	1
15	2
26	1
27	26
28	11
29	70
30	2
31	6
38	1
39	40
40	12
41	352
42	18
43	76
44	4
45	3
50	1
51	6
52	4
53	60
54	6
55	122
56	9
57	50
58	4
59	4
63	2
64	1
65	15
66	8
67	113
68	136
69	999
70	58
71	27
72	2
73	1
77	36
78	7
79	69
80	38
81	420
82	51
83	33
84	31
85	10
86	1
89	1
91	50
92	27
93	229
94	43
95	147
96	19
97	24
98	3
99	3
101	1
103	3
104	2
105	47
106	13
107	126
108	28
109	98
110	13
111	17
112	3
113	1
115	3
116	1
117	4
118	3
119	59
120	28
121	101
122	38
123	84
124	13
125	5
126	1
127	1
128	2
129	2
131	7
132	15
133	46
134	30
135	108
136	101
137	97
138	19
139	6
140	1
141	1
142	1
143	1
145	9
146	7
147	34
148	18
149	28
150	7
151	8
152	2
153	2
157	2
158	1
159	12
160	4
161	40
162	9
163	11
164	3
165	3
166	2
173	3
174	1
175	9
176	4
177	16
178	4
179	7
180	1
185	1
187	9
188	4
189	19
190	9
191	13
192	5
193	2
195	7
196	1
199	1
201	5
202	4
203	25
204	25
205	8
206	3
207	3
208	2
215	2
216	2
217	2
219	1
221	12
222	2
229	8
230	2
247	4
248	1
257	4
258	1
259	5
260	1
270	1
272	18
273	4
274	1
275	1
288	1
290	9
291	2
