Mass Spectrum: Cycloundecanol, 1-methyl-
Formula: C12H24O
CAS: 76154-15-9
Molecular weight: 184
m/z	intensity
26	6
27	122
28	61
29	166
30	6
31	24
39	137
40	32
41	423
42	93
43	555
44	17
45	67
51	10
52	6
53	62
54	43
55	225
56	47
57	73
58	555
59	174
60	7
65	13
66	8
67	95
68	48
69	83
70	29
71	999
72	64
73	6
77	13
78	4
79	16
80	7
81	80
82	92
83	54
84	18
85	75
86	11
91	6
93	6
94	4
95	93
96	69
97	29
98	10
99	13
100	19
109	39
110	30
111	9
112	3
113	26
114	10
123	8
124	83
125	9
126	33
127	37
128	10
137	6
138	3
141	25
142	9
149	7
151	4
155	7
166	13
169	124
170	16
184	28
185	5
