Mass Spectrum: 1-Allyl(dimethyl)silyloxypropane
Formula: C8H18OSi
CAS: 76161-99-4
Molecular weight: 158
m/z	intensity
26	31
27	188
28	13
29	129
30	8
31	51
35	1
36	1
37	7
38	21
39	161
40	19
41	175
42	44
43	289
44	49
45	368
46	29
47	158
48	25
49	4
50	17
51	24
52	31
53	33
54	2
55	45
56	5
57	39
58	123
59	373
60	45
61	171
62	11
63	11
65	4
66	7
67	15
68	2
69	17
70	8
71	43
72	12
73	31
74	31
75	999
76	131
77	73
78	8
79	29
80	1
81	2
82	1
83	21
84	2
85	46
86	1
87	17
88	43
89	4
93	19
95	7
97	7
98	2
99	96
100	17
101	145
102	12
103	7
107	1
109	1
113	1
115	28
116	17
117	869
118	123
119	39
129	49
130	5
131	1
143	42
144	5
145	2
157	2
158	1
