Mass Spectrum: Methyl 2-methyl-2-(methoxy-2-hydroxyethoxy)amino-propanoate
Formula: C8H17NO5
CAS: 76170-91-7
Molecular weight: 207
m/z	intensity
29	133
30	379
31	200
33	35
40	34
41	130
43	144
44	41
45	138
52	125
54	35
55	34
56	999
57	82
58	35
59	206
60	34
61	42
62	152
69	188
70	82
71	35
72	63
73	208
74	187
87	102
88	138
100	111
101	174
102	153
103	42
104	41
106	220
107	35
118	34
130	68
146	34
148	139
149	20
152	41
207	13
