Mass Spectrum: Methyl 2-methyl-2-(methoxy)amino-propanoate
Formula: C6H13NO3
CAS: 76170-89-3
Molecular weight: 147
m/z	intensity
42	131
56	246
57	22
88	999
89	99
100	14
101	22
102	107
132	14
147	22
