Mass Spectrum: N-Benzoyl-dl-baikiain
Formula: C13H13NO3
CAS: 76186-42-0
Molecular weight: 231
m/z	intensity
41	11
42	4
43	6
44	7
45	28
46	0
50	41
51	133
52	20
53	51
54	50
55	11
56	2
57	3
58	1
62	1
63	3
64	1
65	5
66	3
67	4
68	3
69	1
70	0
71	1
73	0
74	8
75	9
76	25
77	432
78	40
79	8
80	94
81	19
82	103
83	8
84	1
86	1
89	1
91	7
92	2
93	1
97	0
98	2
103	2
105	999
106	79
107	6
108	9
109	16
110	1
111	0
115	1
117	0
122	2
124	1
126	285
127	18
128	2
130	1
132	1
133	0
139	1
141	0
143	0
146	1
156	0
157	0
158	0
168	1
172	4
184	7
185	13
186	100
187	45
188	5
213	1
214	3
231	59
232	8
233	0
