Mass Spectrum: Dihydroergokryptine
Formula: C32H43N5O5
CAS: 76190-07-3
Molecular weight: 577
m/z	intensity
41	519
42	206
43	999
44	167
45	51
46	6
47	13
48	10
49	40
50	18
51	39
52	15
53	41
54	118
55	173
56	71
57	74
58	7
59	11
60	30
61	2
63	8
64	3
65	29
66	13
67	161
68	98
69	155
70	761
71	561
72	62
73	33
74	3
75	3
76	4
77	48
78	61
79	40
80	11
81	40
82	84
83	57
84	49
85	25
86	37
87	11
89	7
90	5
91	49
92	5
93	4
94	23
95	18
96	51
97	45
98	48
99	14
100	22
101	5
102	18
103	14
104	7
105	16
106	35
107	13
109	6
110	10
111	20
112	29
113	20
114	6
115	31
116	9
117	6
118	2
119	2
120	4
121	10
122	6
123	9
124	79
125	93
126	29
127	74
128	44
129	28
130	11
131	33
132	5
135	11
137	8
138	14
139	39
140	19
141	37
142	14
143	20
144	113
145	12
146	13
149	20
150	23
151	10
152	39
153	112
154	758
155	138
156	29
157	17
158	3
161	2
162	3
163	4
164	5
165	10
166	18
167	194
168	106
169	41
170	11
171	4
173	5
177	5
178	10
179	6
180	30
181	55
182	73
183	35
184	16
185	9
191	7
192	86
193	68
194	38
195	279
196	76
197	67
198	11
199	9
200	19
201	15
202	9
205	28
206	6
207	26
208	30
209	383
210	164
211	58
212	6
215	4
220	7
221	18
222	15
223	249
224	150
225	161
226	34
227	6
233	27
234	9
235	4
236	2
237	29
238	125
239	61
240	6
243	49
244	38
245	9
250	2
251	49
252	140
253	54
254	20
255	4
256	5
265	16
266	26
267	7
268	33
269	803
270	181
271	72
272	32
273	12
276	6
277	2
278	2
279	3
280	2
285	3
289	3
290	30
291	9
292	2
293	5
294	24
295	6
305	4
306	13
307	6
308	74
309	22
310	2
314	8
320	2
321	21
322	7
323	3
324	8
325	3
334	2
339	3
340	3
342	60
343	12
348	6
349	184
350	66
351	16
352	4
367	3
545	4
546	2
559	32
560	11
561	3
577	39
578	13
