Mass Spectrum: 4,8-Decadienal, 5,9-dimethyl-
Formula: C12H20O
CAS: 762-26-5
Molecular weight: 180
m/z	intensity
41	783
42	112
43	401
44	34
45	141
46	5
47	5
48	0
49	2
50	5
51	20
52	12
53	120
54	40
55	585
56	153
57	152
58	38
59	389
60	24
61	6
62	1
63	5
64	2
65	31
66	16
67	374
68	179
69	999
70	176
71	117
72	21
73	48
74	6
75	4
76	1
77	40
78	8
79	79
80	63
81	591
82	350
83	293
84	53
85	58
86	17
87	10
88	2
89	4
90	1
91	37
92	13
93	80
94	46
95	458
96	94
97	77
98	64
99	48
100	11
101	10
102	6
103	5
104	1
105	30
106	10
107	41
108	24
109	185
110	55
111	65
112	31
113	116
114	13
115	9
116	4
117	6
118	2
119	20
120	8
121	75
122	14
123	312
124	38
125	16
126	8
127	13
128	4
129	7
130	1
131	4
132	2
133	15
134	8
135	15
136	21
137	44
138	106
139	265
140	29
141	15
142	4
143	9
144	2
145	3
146	1
147	20
148	8
149	8
150	3
151	13
152	6
153	0
162	6
163	5
164	2
165	9
166	0
177	0
178	3
179	2
180	28
181	6
182	2
183	0
