Mass Spectrum: Hexanal, 2-chloro-
Formula: C6H11ClO
CAS: 762-39-0
Molecular weight: 134
m/z	intensity
25	1
26	54
27	554
28	19
29	531
30	12
31	14
32	19
35	3
36	14
37	10
38	36
39	375
40	66
41	999
42	569
43	439
44	27
45	3
47	2
48	2
49	34
50	15
51	34
52	8
53	56
54	20
55	431
56	350
57	337
58	65
59	7
60	1
61	9
62	29
63	69
64	10
65	31
66	3
67	16
68	9
69	500
70	60
71	55
72	157
73	9
74	1
75	18
76	9
77	19
78	968
79	36
80	355
81	41
82	4
83	17
84	1
85	3
88	1
89	2
90	0
91	15
92	1
93	5
94	1
95	0
96	1
97	2
98	7
99	6
101	0
103	0
104	2
105	6
106	1
107	2
116	2
118	0
