Mass Spectrum: Pyrrolidin-1-propionic acid
Formula: C7H13NO2
CAS: 76234-38-3
Molecular weight: 143
m/z	intensity
41	48
42	501
43	245
44	51
45	235
54	22
55	154
56	92
57	32
68	15
69	42
70	108
71	76
73	18
78	40
82	60
84	999
85	66
106	16
124	15
142	32
143	75
