Mass Spectrum: 3,3'-Bis(1,2,4-oxadiazolyl)-5,5'-diamine
Formula: C4H4N6O2
CAS: 7627-06-7
Molecular weight: 168
m/z	intensity
33	2
34	2
35	0
36	4
38	36
39	35
40	60
41	70
42	173
43	659
44	999
45	13
46	2
47	0
49	0
50	2
52	39
53	244
54	77
55	8
56	5
57	7
58	34
59	2
60	2
62	0
63	1
64	4
65	9
66	15
68	208
69	173
70	9
71	4
72	1
73	0
75	1
76	3
77	2
78	4
79	7
80	43
81	10
82	2
83	7
84	27
85	4
86	1
87	0
89	0
90	0
91	3
92	9
93	8
95	767
96	85
97	3
98	0
99	0
100	0
101	0
102	0
103	2
104	0
105	1
106	1
107	1
108	1
110	81
111	127
112	7
113	1
115	0
118	0
120	0
121	1
123	1
125	33
126	121
127	10
128	3
129	1
131	0
133	0
134	0
136	0
137	3
138	2
139	1
140	0
143	0
146	0
148	0
149	0
151	0
152	0
153	1
154	1
158	0
162	0
163	2
164	1
165	2
166	12
168	477
169	32
170	3
171	1
