Mass Spectrum: 4-(5-Oxopyrrolidin-2-yl)-morpholine
Formula: C8H14N2O2
CAS: 76284-13-4
Molecular weight: 170
m/z	intensity
12	4
13	8
14	32
15	115
16	6
17	5
18	30
19	3
24	2
25	12
26	123
27	289
28	999
29	421
30	238
31	39
32	1
35	1
36	2
37	9
38	16
39	61
40	35
41	355
42	193
43	90
44	67
45	23
46	1
47	1
50	3
51	11
52	22
53	15
54	125
55	150
56	413
57	778
58	67
59	12
60	2
63	1
65	1
66	6
67	9
68	37
69	37
70	33
71	7
72	5
73	1
78	1
80	4
81	2
82	25
83	84
84	443
85	39
86	592
87	373
88	37
89	2
94	2
95	1
96	8
97	8
98	9
99	2
100	5
109	1
110	1
111	2
112	30
113	14
114	5
115	10
116	1
125	4
126	12
127	6
128	1
129	5
141	22
142	2
168	1
169	4
170	58
171	10
172	1
