Mass Spectrum: 4-But-1-enyltrimethylsilane
Formula: C7H16Si
CAS: 763-13-3
Molecular weight: 128
m/z	intensity
25	0
26	3
27	24
29	43
30	3
31	50
33	1
37	0
38	1
39	17
40	0
41	6
42	17
43	154
44	44
45	164
46	11
47	5
50	1
51	2
52	0
53	16
54	4
55	28
56	4
57	21
58	31
59	567
60	37
61	18
62	0
64	2
65	1
66	3
67	6
68	1
69	9
70	6
71	19
72	18
73	999
74	89
75	37
76	1
77	0
79	0
80	0
81	2
82	0
83	5
84	4
85	206
86	18
87	9
88	0
93	0
95	5
96	0
97	11
98	1
99	1
100	2
101	0
109	0
111	4
113	354
114	38
115	14
116	0
128	7
129	1
130	0
