Mass Spectrum: 3-Heptyn-2-ol, 2-methyl-
Formula: C8H14O
CAS: 763-19-9
Molecular weight: 126
m/z	intensity
26	18
27	152
28	15
29	56
30	2
31	17
37	10
38	32
39	245
40	4
41	398
42	32
43	626
44	23
45	97
46	3
47	2
49	3
50	28
51	51
52	16
53	99
54	16
55	249
56	11
57	26
58	45
59	6
60	0
61	5
62	18
63	32
64	6
65	57
66	46
67	150
68	43
69	237
70	44
71	32
72	2
73	3
74	5
75	3
76	1
77	128
78	17
79	125
80	14
81	21
82	17
83	100
84	105
85	7
86	1
87	1
89	1
91	17
92	2
93	17
94	5
95	44
96	5
97	999
98	65
99	3
105	0
107	0
109	1
110	0
111	18
112	2
