Mass Spectrum: Bis(trifluoromethylthio)amine
Formula: C2HF6NS2
CAS: 763-24-6
Molecular weight: 217
m/z	intensity
46	613
47	942
63	137
64	59
66	34
69	999
78	144
82	74
83	41
96	96
116	837
117	50
118	43
128	54
147	102
148	183
149	15
150	15
163	31
198	234
199	9
200	19
216	399
217	797
218	137
219	91
220	8
221	2
