Mass Spectrum: 3-Hexen-2-one
Formula: C6H10O
CAS: 763-93-9
Molecular weight: 98
m/z	intensity
25	1
26	38
27	211
29	351
30	6
31	3
33	1
37	9
38	24
39	211
40	26
41	82
42	48
43	650
44	16
45	2
49	5
50	36
51	40
52	13
53	89
54	19
55	784
56	45
57	6
62	2
63	2
65	2
67	8
68	6
69	20
70	7
71	6
79	9
81	6
82	3
83	999
84	54
85	4
97	3
98	254
99	14
