Mass Spectrum: 2-Heptanethiol, 2-methyl-
Formula: C8H18S
CAS: 763-20-2
Molecular weight: 146
m/z	intensity
37	7
38	13
39	168
40	27
41	420
42	38
43	184
44	23
45	22
46	8
47	42
48	4
49	5
50	10
51	16
52	6
53	10
54	9
55	247
56	156
57	999
58	69
59	31
60	5
61	22
62	20
63	4
64	2
65	6
66	3
67	13
68	4
69	57
70	25
71	16
72	2
73	4
74	27
75	206
76	12
77	16
78	3
79	6
80	1
81	10
82	3
83	16
84	4
85	3
87	2
88	20
89	43
90	6
91	6
92	1
95	2
96	2
97	94
98	13
99	12
100	2
101	1
103	3
104	6
112	49
113	41
114	4
132	6
146	6
