Mass Spectrum: Cyclobutanespiro-2'-bicyclo[1.1.0]butane-4'-spirocyclobutane
Formula: C10H14
CAS: 76308-11-7
Molecular weight: 134
m/z	intensity
41	190
42	120
51	110
53	120
65	130
67	110
77	230
78	390
79	440
91	999
92	120
105	290
106	490
134	50
135	5
