Mass Spectrum: N-(3-Morpholino-2-nitrophenyl)acetamide
Formula: C12H15N3O4
CAS: 76320-96-2
Molecular weight: 265
m/z	intensity
34	3
35	0
36	3
37	8
38	23
39	82
40	49
41	64
42	136
43	999
44	57
45	45
46	4
47	0
48	0
50	21
51	48
52	61
53	32
54	27
55	18
56	19
57	10
58	5
59	3
60	2
61	3
62	16
63	57
64	63
65	103
66	47
67	20
68	6
69	4
70	4
71	1
72	2
73	14
74	6
75	11
76	30
77	60
78	53
79	37
80	57
81	10
82	4
83	1
84	2
85	1
86	4
87	3
88	4
89	14
90	53
91	79
92	97
93	84
94	28
95	6
96	3
97	0
98	0
100	1
101	0
102	6
103	25
104	45
105	51
106	35
107	56
108	17
109	3
110	4
111	0
112	0
114	0
115	2
116	12
117	41
118	53
119	39
120	36
121	52
122	8
123	3
124	0
126	0
128	2
129	3
130	14
131	34
132	47
133	88
134	103
135	28
136	7
137	5
138	1
142	0
143	4
144	13
145	29
146	67
147	36
148	62
149	20
150	15
151	2
152	0
153	0
156	0
157	2
158	21
159	21
160	48
161	63
162	21
163	8
164	11
165	46
166	5
167	0
168	0
170	2
171	3
172	4
173	5
174	9
175	11
176	32
177	6
178	8
179	0
183	0
184	4
185	0
186	4
187	9
188	33
189	33
190	8
191	2
192	6
193	3
194	1
200	7
201	2
202	10
203	3
204	2
205	23
206	72
207	10
208	0
212	4
213	0
214	3
215	0
216	2
217	7
218	7
219	339
220	49
221	5
222	9
223	1
230	7
231	2
232	1
233	0
234	0
235	2
236	0
248	27
249	4
250	1
264	0
265	65
266	9
267	0
