Mass Spectrum: 2H-Indol-2-one, 1,3-dihydro-5-bromo-3-hydroxy-3-(2-oxopropyl)-
Formula: C11H10BrNO3
CAS: 76325-66-1
Molecular weight: 283
m/z	intensity
36	8
37	67
38	68
39	163
40	57
41	92
42	101
43	999
44	70
45	14
49	12
50	49
51	95
52	80
53	32
55	49
57	67
58	99
59	11
61	60
62	100
63	229
64	65
65	36
66	11
67	10
69	41
70	13
71	14
73	14
74	56
75	60
76	25
77	46
78	27
79	19
80	20
81	14
82	18
83	12
84	17
85	25
86	12
87	23
88	34
89	74
90	101
91	57
92	22
98	10
99	9
100	9
102	9
103	8
104	28
105	17
112	17
114	10
115	22
116	57
117	24
118	10
119	27
120	14
132	8
133	28
142	9
143	20
144	34
145	19
146	11
147	9
148	9
162	10
168	13
169	29
170	48
171	36
172	37
182	9
184	8
186	8
194	17
195	9
196	25
197	98
198	94
199	76
200	73
213	13
215	8
222	20
223	11
224	45
225	46
226	106
227	40
228	85
238	112
239	31
240	199
241	35
242	93
243	9
255	12
257	9
267	9
283	91
285	90
286	9
