Mass Spectrum: 1-Methyl-3-phenylpropylamine, N-pentafluoropropionyl-
Formula: C13H14F5NO
CAS: 76330-15-9
Molecular weight: 295
m/z	intensity
15	1
26	1
27	13
28	23
29	6
30	2
31	3
38	2
39	33
40	4
41	28
42	27
43	14
44	34
45	29
46	1
47	7
50	12
51	40
52	11
53	9
54	13
55	8
56	5
57	5
59	9
61	1
62	4
63	24
64	9
65	98
66	10
67	1
69	43
70	15
72	104
73	5
74	9
75	5
76	7
77	95
78	58
79	53
80	3
81	2
82	2
84	2
86	1
87	2
88	3
89	28
91	688
92	242
93	16
94	1
95	1
96	3
98	5
100	7
101	3
102	13
103	68
104	81
105	207
106	21
107	4
109	9
110	1
112	1
113	1
115	90
116	38
117	999
118	102
119	197
120	8
121	2
122	27
123	2
126	1
127	5
128	15
129	17
130	13
131	104
132	666
133	122
134	10
135	1
140	1
142	15
143	9
144	15
145	1
146	16
147	13
148	2
152	1
155	1
156	1
158	1
160	2
163	7
164	14
171	3
172	9
173	1
174	1
176	206
177	25
178	2
186	1
188	2
190	410
191	610
192	34
193	2
202	7
203	12
204	81
205	5
206	1
217	1
252	10
253	2
276	2
278	2
280	13
281	1
295	323
296	47
297	4
