Mass Spectrum: Phenethylamine, .alpha.-butyl-.beta.-methyl-
Formula: C13H21N
CAS: 7634-70-0
Molecular weight: 191
m/z	intensity
41	100
42	30
43	90
44	100
45	10
50	10
51	30
53	10
54	10
56	50
57	10
63	10
65	10
66	10
67	10
69	50
77	50
78	10
79	40
86	999
87	160
91	40
92	10
103	20
104	10
105	50
106	10
115	20
116	10
117	20
118	10
119	10
134	40
191	10
