Mass Spectrum: (1S)-(+)-Menthyl chloroformate
Formula: C11H19ClO2
CAS: 7635-54-3
Molecular weight: 218
m/z	intensity
27	35
28	7
29	38
36	2
38	3
39	94
40	16
41	267
42	41
43	163
44	18
45	3
50	4
51	15
52	9
53	77
54	92
55	332
56	73
57	91
58	5
62	1
63	111
64	2
65	60
66	14
67	285
68	109
69	175
70	33
71	18
75	7
77	41
78	8
79	85
80	87
81	999
82	286
83	199
84	16
85	2
86	2
88	2
89	7
90	1
91	24
92	3
93	38
94	92
95	870
96	271
97	67
98	5
103	2
105	3
107	6
108	2
109	96
110	27
111	3
112	2
119	4
121	4
122	2
123	469
124	45
125	3
132	1
133	4
135	2
137	10
138	244
139	94
140	9
