Mass Spectrum: 2-Methyl-6-phthalimido-hexan-3-one
Formula: C15H17NO3
CAS: 76367-87-8
Molecular weight: 259
m/z	intensity
41	794
42	116
43	999
44	41
45	6
47	18
48	8
49	99
50	206
51	170
52	25
53	26
54	22
55	88
56	65
57	21
58	11
59	3
60	1
61	1
62	6
63	19
64	12
65	20
66	18
67	10
68	42
69	209
70	41
71	366
72	25
73	6
74	55
75	110
76	351
77	383
78	45
79	10
80	2
81	6
82	5
83	9
84	72
85	7
86	143
87	1
88	13
89	15
90	19
91	12
92	6
93	5
94	8
95	6
96	2
97	21
98	5
99	20
100	4
101	7
102	92
103	38
104	237
105	141
106	14
107	1
108	0
109	2
110	4
111	12
112	134
113	13
114	2
115	10
116	7
117	28
118	5
119	1
120	1
121	1
123	1
124	0
125	1
126	1
127	1
128	6
129	15
130	282
131	28
132	47
133	96
134	10
135	1
137	1
139	7
140	1
141	1
142	2
143	5
144	2
145	7
146	7
147	16
148	170
149	24
150	1
154	25
155	3
156	3
158	4
159	2
160	684
161	157
162	15
163	1
167	9
168	1
169	5
170	3
171	7
172	30
173	47
174	410
175	46
176	5
180	1
186	4
187	2
188	312
189	42
190	3
198	1
201	3
214	2
216	656
217	86
218	9
219	3
244	1
245	0
257	1
259	261
260	48
261	5
