Mass Spectrum: 21-Norpicrasane-20-carboxylic acid, 1,2,3-tris(acetyloxy)-13,16-dioxo-, (1.alpha.,2.beta.,3.beta.)-
Formula: C26H34O11
CAS: 76389-72-5
Molecular weight: 522
m/z	intensity
27	10
28	14
29	17
39	12
41	42
42	13
43	999
45	44
46	19
53	16
55	90
57	36
65	12
67	24
69	54
71	28
77	28
79	36
81	30
82	18
83	22
84	22
91	54
92	14
93	29
94	21
95	42
97	21
103	20
105	43
106	25
107	25
108	40
109	18
110	29
111	40
113	17
115	20
117	23
119	42
121	38
122	56
123	46
124	36
129	26
131	33
133	32
135	78
136	23
137	27
143	24
145	37
147	31
148	24
149	35
155	23
156	29
157	30
159	41
160	37
161	40
169	27
171	31
173	37
174	45
175	30
177	24
183	28
185	35
187	36
188	23
195	25
197	32
199	40
201	35
202	35
203	31
205	21
207	23
209	26
210	23
211	43
212	28
213	42
214	23
215	34
216	20
217	19
219	22
221	19
223	33
224	18
225	56
226	35
227	61
228	38
229	28
231	26
232	23
233	20
235	19
237	31
239	34
241	46
242	24
243	37
244	76
245	28
246	19
249	27
251	29
253	59
254	60
255	35
261	28
262	24
263	38
264	30
265	76
266	23
267	55
268	23
269	28
271	62
272	31
277	32
278	36
279	55
281	50
282	59
283	60
284	24
285	22
291	22
295	27
296	58
297	38
298	36
299	28
300	23
306	29
307	26
309	43
313	30
314	44
315	21
323	21
324	186
325	88
326	22
327	52
340	23
341	63
342	336
343	150
344	30
345	87
346	19
356	15
358	23
359	40
360	178
361	44
367	30
374	12
384	116
385	44
387	53
394	16
400	34
401	32
402	443
403	111
404	23
416	15
418	15
420	16
426	28
444	252
445	69
446	16
458	96
459	26
460	25
462	73
463	19
477	10
486	111
487	32
488	13
504	107
505	29
506	8
