Mass Spectrum: 21-Norpicrasane-13,16-dione, 1,2,3-tris(acetyloxy)-, (1.alpha.,2.beta.,3.beta.)-
Formula: C25H34O9
CAS: 76389-77-0
Molecular weight: 478
m/z	intensity
27	16
28	10
29	31
39	17
41	90
42	19
43	999
44	34
45	17
53	29
54	10
55	145
56	15
57	36
58	9
60	13
61	9
65	13
67	48
68	14
69	66
70	12
71	43
73	12
77	31
78	11
79	58
80	22
81	70
82	27
83	49
84	23
85	19
91	58
92	16
93	61
94	22
95	101
96	24
97	44
98	16
99	17
100	11
101	10
102	11
103	12
105	70
106	29
107	78
108	34
109	69
110	28
111	55
112	12
113	21
115	27
116	11
117	29
118	16
119	137
120	37
121	78
122	120
123	67
124	30
125	19
126	12
127	14
128	14
129	27
130	16
131	50
132	23
133	70
134	25
135	99
136	47
137	52
138	18
139	22
140	17
141	16
142	18
143	36
144	28
145	112
146	45
147	83
148	39
149	55
150	23
151	30
152	19
153	24
154	17
155	23
156	27
157	74
158	32
159	82
160	30
161	68
162	40
163	36
164	21
165	22
166	14
167	17
168	12
169	41
170	34
171	80
172	46
173	88
174	45
175	70
176	29
177	32
178	35
179	28
180	14
181	33
182	43
183	109
184	51
185	79
186	38
187	90
188	45
189	44
190	25
191	22
192	12
193	15
194	14
195	31
196	19
197	46
198	26
199	62
200	77
201	103
202	57
203	58
204	21
205	24
206	12
207	24
208	16
209	31
210	26
211	41
212	22
213	42
214	30
215	74
216	50
217	82
218	37
219	29
220	16
221	23
222	13
223	39
224	19
225	41
226	21
227	62
228	75
229	60
230	26
231	22
232	23
233	25
234	21
235	20
236	13
237	42
238	70
239	164
240	42
241	69
242	47
243	71
244	42
245	103
246	67
247	35
248	16
250	18
251	24
252	53
253	35
254	35
255	77
256	92
257	147
258	40
259	28
260	58
261	87
262	60
263	27
265	57
266	20
267	27
268	19
269	56
270	104
271	50
272	26
273	40
274	35
275	31
276	15
279	18
280	85
281	53
282	18
283	112
284	28
285	19
286	20
287	45
288	131
289	36
290	13
297	39
298	515
299	215
300	46
301	112
302	30
303	17
304	15
305	13
312	14
314	16
316	558
317	177
318	37
319	170
320	38
321	15
325	14
330	23
331	21
332	10
333	25
334	214
335	50
336	11
340	34
341	16
342	15
343	36
344	11
345	8
346	10
357	11
358	397
359	130
360	33
361	302
362	70
363	16
375	22
376	571
377	160
378	29
390	43
391	12
394	10
400	35
401	14
402	19
404	10
418	308
419	109
420	24
436	10
460	14
461	7
462	10
463	13
478	253
479	73
480	17
481	1
