Mass Spectrum: 1-Phenanthreneacetonitrile, 2,5,6,7-tetrakis(acetyloxy)tetradecahydro-2,4b,8-trimethyl-
Formula: C27H39NO8
CAS: 76389-60-1
Molecular weight: 505
m/z	intensity
26	2
27	15
28	16
29	34
30	3
31	5
38	2
39	11
40	6
41	91
42	26
43	999
44	30
45	114
46	2
50	1
51	3
52	3
53	18
54	9
55	68
56	17
57	51
58	9
59	3
60	84
61	8
63	2
64	1
65	13
66	7
67	47
68	11
69	62
70	9
71	56
72	5
73	11
74	2
75	1
76	3
77	37
78	11
79	74
80	18
81	76
82	24
83	39
84	23
85	15
86	5
87	7
88	1
89	4
90	2
91	94
92	22
93	91
94	29
95	76
96	18
97	39
98	16
99	13
100	17
101	5
102	9
103	17
104	12
105	143
106	53
107	117
108	51
109	51
110	21
111	27
112	6
113	19
114	4
115	23
116	12
117	34
118	32
119	166
120	72
121	141
122	71
123	88
124	32
125	23
126	7
127	10
128	18
129	28
130	21
131	112
132	66
133	78
134	36
135	114
136	55
137	32
138	10
139	13
140	6
141	15
142	20
143	52
144	49
145	102
146	63
147	51
148	23
149	44
150	15
151	11
152	10
153	10
154	6
155	35
156	17
157	59
158	51
159	74
160	43
161	45
162	17
163	14
164	8
165	11
166	7
167	9
168	7
169	55
170	32
171	107
172	47
173	44
174	20
175	19
176	14
177	13
178	11
179	9
180	6
181	14
182	14
183	59
184	32
185	40
186	30
187	22
188	13
189	22
190	9
191	7
192	5
193	7
194	7
195	14
196	15
197	23
198	20
199	23
200	32
201	19
202	22
203	11
204	4
205	4
206	3
207	6
208	13
209	29
210	28
211	31
212	38
213	46
214	31
215	18
216	10
217	6
218	5
219	4
220	3
221	4
222	8
223	22
224	30
225	496
226	113
227	36
228	24
229	13
230	17
231	9
232	5
233	6
234	4
235	4
236	21
237	13
238	17
239	10
240	42
241	24
242	24
243	126
244	31
245	6
246	3
247	4
248	5
249	6
250	67
251	18
252	13
253	6
254	32
255	18
256	12
257	5
258	7
259	4
260	3
261	9
262	5
263	4
264	19
265	229
266	84
267	24
268	125
269	29
270	12
271	4
272	6
273	4
274	6
275	3
278	3
279	2
280	4
281	5
282	53
283	319
284	99
285	81
286	107
287	22
288	3
289	2
290	3
296	2
298	2
299	2
300	24
301	88
302	22
303	14
304	3
306	2
307	2
308	2
310	12
311	3
317	2
318	1
323	3
325	86
326	27
327	6
328	143
329	32
330	6
333	2
334	2
341	1
342	5
343	102
344	26
345	24
346	11
347	3
350	3
360	4
361	38
362	9
363	2
374	1
384	3
385	59
386	16
387	3
388	39
389	10
390	2
403	36
404	10
405	4
406	1
445	13
446	5
463	1
