Mass Spectrum: 21-Norpicrasane-20-carboxylic acid, 1,2,3-tris(acetyloxy)-13,16-dioxo-, methyl ester, (1.alpha.,2.beta.,3.beta.)-
Formula: C27H36O11
CAS: 76389-73-6
Molecular weight: 536
m/z	intensity
27	14
29	29
31	14
39	9
41	66
42	15
43	999
44	29
45	18
53	21
55	110
56	9
57	31
59	17
60	11
65	9
67	31
69	42
71	34
73	10
74	22
77	28
79	49
80	14
81	41
82	14
83	24
84	12
85	17
91	52
92	12
93	46
94	14
95	68
96	13
97	32
105	51
107	19
108	44
109	17
110	43
111	12
112	38
113	16
115	16
117	24
119	55
120	19
121	54
122	46
123	38
124	13
125	13
130	26
133	44
134	19
135	38
136	60
137	22
138	36
141	17
143	35
144	16
145	63
146	18
147	45
148	22
149	41
155	22
156	17
157	45
158	16
159	52
160	23
161	43
162	17
163	23
165	23
169	33
171	50
172	25
173	55
174	22
175	34
177	26
179	24
180	20
181	24
183	41
184	19
185	57
186	23
187	50
188	19
189	29
191	20
192	21
195	32
197	37
199	59
200	28
201	58
202	20
203	29
205	26
207	27
208	22
209	35
211	45
212	88
213	75
215	29
216	50
217	23
218	31
219	23
221	34
223	62
224	24
225	53
226	29
227	68
228	34
229	83
230	49
231	38
233	24
235	24
236	24
237	77
238	31
239	67
240	33
241	112
243	43
244	56
245	29
246	40
247	21
253	46
254	44
255	106
256	34
257	48
258	30
259	59
260	29
265	25
266	82
267	23
268	57
269	26
270	32
272	37
273	24
274	62
278	21
280	45
281	97
283	219
284	50
285	41
286	23
287	19
295	24
296	35
297	49
299	40
300	50
301	84
302	26
303	20
309	14
310	14
313	21
314	28
315	33
319	14
324	24
325	26
327	21
328	20
333	8
338	10
342	54
343	40
345	17
355	23
356	15
359	26
361	44
362	15
373	19
374	67
375	64
376	19
377	19
384	27
385	16
387	26
392	18
400	28
401	19
402	127
403	62
416	20
417	26
421	14
432	32
434	35
435	22
438	17
444	9
462	55
463	93
464	23
475	10
494	11
505	3
536	7
