Mass Spectrum: 5-Hexenal
Formula: C6H10O
CAS: 764-59-0
Molecular weight: 98
m/z	intensity
24	320
39	500
40	70
41	700
42	320
43	110
44	150
50	20
51	30
52	10
53	100
54	999
55	450
56	80
57	70
65	20
68	40
69	160
70	90
79	20
80	410
81	30
83	70
97	20
98	20
