Mass Spectrum: N-(5-Isopropyl-1,3,4-thiadiazol-2-yl)benzamide
Formula: C12H13N3OS
CAS: 76401-75-7
Molecular weight: 247
m/z	intensity
37	5
38	17
39	90
40	17
41	64
42	12
43	41
44	4
45	44
46	9
47	11
48	0
49	1
50	56
51	152
52	20
53	40
54	8
55	12
56	0
57	5
58	12
59	38
60	5
61	2
62	1
63	3
64	2
65	1
67	1
68	7
69	15
70	6
71	49
72	29
73	7
74	20
75	16
76	31
77	548
78	41
79	1
81	0
82	1
83	4
84	1
85	9
86	5
87	37
88	2
89	2
91	3
100	2
101	2
102	1
103	2
105	999
106	80
107	5
108	0
109	1
111	1
115	1
127	2
128	0
130	2
132	0
134	1
135	1
136	5
143	1
145	1
146	0
150	2
157	0
160	12
161	2
164	3
170	24
171	3
178	0
218	16
219	220
220	35
221	13
222	1
232	6
246	163
247	145
248	28
249	9
