Mass Spectrum: N-Phenyl-3-morpholinocrotonamide
Formula: C14H18N2O2
CAS: 76409-89-7
Molecular weight: 246
m/z	intensity
41	32
42	52
43	539
44	16
45	6
47	8
48	3
49	35
50	19
51	70
52	24
53	8
54	9
55	11
56	19
57	36
58	108
59	4
61	3
62	8
63	35
64	36
65	113
66	85
67	12
68	0
69	17
70	4
71	0
74	4
75	3
77	72
78	8
79	8
81	0
84	22
85	34
86	23
87	19
88	3
89	0
90	3
91	37
92	20
93	999
94	56
95	2
104	3
106	16
107	0
108	1
114	3
117	4
119	80
120	5
126	2
127	0
128	0
130	0
134	15
135	3
144	2
154	17
160	2
177	267
178	38
179	2
206	0
246	1
