Mass Spectrum: cis-Ocimenol
Formula: C10H18O
CAS: 7643-59-6
Molecular weight: 154
m/z	intensity
26	2
27	43
29	37
30	1
31	52
37	1
38	6
39	132
40	24
41	236
42	21
43	261
44	8
45	13
50	14
51	43
52	23
53	164
54	22
55	159
56	32
57	31
59	640
60	24
62	5
63	15
64	4
65	64
66	33
67	171
68	118
69	100
70	17
74	3
75	2
77	164
78	26
79	386
80	262
81	694
82	64
89	1
91	169
92	136
93	999
94	126
95	84
103	7
104	2
105	85
106	18
107	124
119	28
120	6
121	419
122	44
123	8
126	1
136	457
137	52
138	4
139	28
140	3
141	1
149	1
