Mass Spectrum: 4-Piperidinamine, 1,2,5-trimethyl-N-phenyl-
Formula: C14H22N2
CAS: 76432-88-7
Molecular weight: 218
m/z	intensity
33	9
34	77
39	209
40	91
41	400
42	999
43	234
44	593
48	8
50	60
51	130
52	16
53	55
54	53
55	283
56	376
57	374
58	433
62	8
63	64
64	70
65	172
66	36
67	42
68	55
70	883
71	257
72	87
73	43
74	33
76	8
77	368
78	83
79	83
80	27
81	49
82	48
83	135
84	231
85	46
87	14
89	31
90	14
91	114
92	89
93	84
94	28
95	5
96	25
98	133
99	69
101	21
102	31
103	5
104	106
106	57
108	8
109	5
110	738
111	47
115	33
116	15
117	102
118	145
119	121
120	41
125	227
126	169
127	30
128	5
130	95
132	127
133	104
134	20
144	49
146	77
148	8
155	10
157	10
159	5
161	8
172	10
173	9
174	14
176	6
182	14
195	7
197	10
203	82
204	8
218	425
219	87
