Mass Spectrum: L-Arabinitol
Formula: C5H12O5
CAS: 7643-75-6
Molecular weight: 152
m/z	intensity
13	1
14	12
15	188
16	3
17	23
18	82
19	9
26	13
27	96
28	174
29	175
30	28
31	344
32	19
33	4
37	1
38	3
39	20
40	6
41	23
42	85
43	542
44	517
45	334
46	18
47	19
49	5
50	1
51	2
52	1
53	4
54	6
55	127
56	408
57	148
58	12
59	11
60	135
61	999
62	43
63	8
67	1
68	3
69	9
70	5
71	29
72	31
73	440
74	560
75	28
76	4
81	2
82	2
83	1
84	1
85	69
86	9
87	3
88	9
89	5
90	8
91	373
92	13
93	3
95	1
97	1
98	2
102	1
103	255
104	14
105	2
116	1
120	2
121	8
