Mass Spectrum: 4-Undecene, 7-methyl-
Formula: C12H24
CAS: 76441-79-7
Molecular weight: 168
m/z	intensity
24	0
26	4
27	85
28	6
29	93
30	2
36	1
39	58
40	7
41	265
42	69
43	999
44	23
45	1
46	0
47	0
50	2
51	5
52	3
53	21
54	22
55	252
56	280
57	219
58	12
65	19
66	5
67	36
68	17
69	196
70	107
71	16
73	0
75	1
76	0
77	5
78	1
79	6
80	2
81	12
82	20
83	42
84	251
85	191
86	12
91	2
92	0
93	1
95	3
96	1
97	12
98	31
99	8
100	0
109	1
110	5
111	40
112	12
113	1
125	2
126	9
127	1
139	0
140	3
141	0
168	35
169	3
