Mass Spectrum: Hydrogen chloride
Formula: ClH
CAS: 7647-01-0
Molecular weight: 36
m/z	intensity
35	170
36	999
37	54
38	324
