Mass Spectrum: 1,3-Dithiane, 2-[4-(1-ethoxyethoxy)butyl]
Formula: C12H24O2S2
CAS: 76494-98-9
Molecular weight: 264
m/z	intensity
26	31
27	191
28	11
29	188
30	15
31	194
38	11
39	161
40	23
41	364
42	88
43	232
44	166
45	829
46	107
47	180
48	10
49	15
50	10
51	17
52	10
53	44
54	26
55	259
56	45
57	79
58	46
59	137
60	43
61	108
62	14
63	19
64	22
65	49
66	26
67	226
68	33
69	68
70	24
71	73
72	84
73	705
74	171
75	207
76	22
77	31
78	16
79	22
80	10
81	36
82	12
83	63
84	57
85	227
86	32
87	124
88	20
89	34
90	14
91	205
92	21
93	83
94	11
95	20
96	11
97	25
98	27
99	114
100	110
101	107
102	17
103	66
104	10
105	39
106	158
107	163
108	38
109	20
110	13
111	26
112	21
113	29
114	22
115	35
116	10
117	130
118	17
119	999
120	92
121	131
122	12
123	9
125	12
127	21
128	10
129	17
130	11
131	14
132	37
133	63
134	17
135	67
136	8
137	15
139	16
140	9
143	11
144	10
145	88
146	26
147	40
148	9
172	46
173	24
174	66
175	290
176	45
177	35
178	9
179	8
181	10
185	15
186	10
189	15
190	15
191	729
192	263
193	116
194	34
195	13
204	17
218	171
219	40
220	23
264	8
