Mass Spectrum: (E)-15,16-Dinorlabda-8(17),11-dien-13-one
Formula: C18H28O
CAS: 76497-69-3
Molecular weight: 260
m/z	intensity
27	24
28	22
29	110
39	159
40	30
41	447
42	108
43	999
45	20
51	37
52	31
53	158
54	59
55	432
57	173
58	30
59	43
60	99
61	74
63	39
65	211
66	70
67	304
69	313
70	67
71	46
77	215
78	88
79	322
80	192
81	505
82	73
83	123
84	50
85	87
86	13
87	38
91	262
92	80
93	178
94	80
95	299
96	51
97	88
98	47
102	16
103	36
105	245
106	74
107	217
108	168
109	374
115	155
117	96
118	53
119	206
120	59
121	677
122	128
123	261
124	247
125	18
127	43
128	63
129	87
130	29
131	152
132	36
133	158
134	45
135	91
136	65
137	289
138	18
142	25
143	36
145	95
146	22
147	63
148	21
149	227
153	24
157	115
159	29
161	125
163	27
171	22
173	25
175	60
176	38
177	80
185	17
187	35
189	90
190	14
202	23
203	27
215	17
217	126
218	19
227	45
245	101
260	194
