Mass Spectrum: Propanoic acid, 3-(acetylthio)-2-methyl-, (S)-
Formula: C6H10O3S
CAS: 76497-39-7
Molecular weight: 162
m/z	intensity
13	2
14	10
15	42
16	3
17	2
18	8
20	1
25	1
26	8
27	38
28	4
29	22
30	3
31	7
32	3
33	2
34	2
35	2
36	6
37	5
38	10
39	77
40	15
41	120
42	272
43	999
44	33
45	152
46	28
47	34
48	2
49	2
50	1
51	2
53	3
55	15
56	20
57	14
58	14
59	18
60	36
61	130
62	3
63	4
67	1
68	4
69	16
70	2
71	9
72	3
73	36
74	60
75	11
76	6
77	3
78	1
83	1
85	2
86	14
87	13
88	1
89	2
91	2
95	2
100	1
101	9
102	139
103	11
104	6
105	2
113	1
116	3
117	2
119	6
120	10
121	1
122	2
134	3
144	7
145	2
162	11
