Mass Spectrum: Pyrazole, 5-chloro-3-methyl-1-phenyl-4-phenylazo-
Formula: C16H13ClN4
CAS: 76492-71-2
Molecular weight: 296
m/z	intensity
36	14
37	12
38	45
39	85
40	28
41	30
42	6
43	7
44	5
49	8
50	96
51	429
52	42
53	5
61	6
62	19
63	64
64	95
65	51
66	5
73	8
74	18
75	26
77	999
78	83
79	7
85	19
86	17
87	16
88	19
89	36
90	13
91	53
92	14
101	9
102	13
103	19
104	18
105	92
106	157
107	13
114	11
115	10
116	5
117	10
123	11
125	5
126	9
127	34
128	71
129	27
130	7
138	23
140	9
148	5
149	5
150	11
151	5
152	5
153	2
154	1
155	17
156	16
157	3
162	4
163	7
164	13
165	8
166	5
167	3
175	1
176	1
189	2
190	5
191	132
192	18
193	41
194	6
206	1
217	1
219	264
220	40
221	91
222	10
232	1
233	2
261	2
295	2
296	114
297	22
298	38
299	6
