Mass Spectrum: Thiophene, 2-(chloromethyl)-
Formula: C5H5ClS
CAS: 765-50-4
Molecular weight: 132
m/z	intensity
26	19
27	41
28	59
29	9
31	3
32	17
35	10
36	13
37	39
38	56
39	92
40	3
41	6
42	2
43	9
44	1
45	364
47	52
48	37
49	26
50	45
51	60
52	23
53	171
54	5
55	5
56	7
57	48
58	47
59	6
60	7
61	16
62	20
63	33
64	3
66	1
67	2
69	99
70	26
71	26
72	3
73	10
79	5
81	8
82	9
83	3
84	2
85	2
87	5
92	3
93	13
94	3
95	29
96	57
97	999
98	54
99	40
100	2
115	1
131	26
132	271
133	20
134	87
135	4
