Mass Spectrum: Spiro[2,4]hepta-4,6-diene
Formula: C7H8
CAS: 765-46-8
Molecular weight: 92
m/z	intensity
24	1
26	9
27	20
28	1
29	2
31	4
36	0
37	8
38	16
39	58
40	10
41	6
42	0
43	3
44	1
45	9
46	1
48	0
49	3
50	24
51	37
52	15
53	9
54	0
58	0
59	3
60	1
61	12
62	23
63	54
64	11
65	141
66	40
67	2
69	0
73	1
74	7
75	3
76	2
77	11
78	4
79	1
80	0
82	0
84	1
85	2
86	3
87	2
88	0
89	30
90	8
91	999
92	387
93	26
94	0
