Mass Spectrum: 1-Methylsilacyclohexane
Formula: C6H14Si
CAS: 765-62-8
Molecular weight: 114
m/z	intensity
43	140
58	430
59	160
71	480
72	240
73	90
85	340
86	999
87	130
98	210
99	170
113	270
114	430
