Mass Spectrum: 1-Methyl-1-silacyclobutane
Formula: C4H10Si
CAS: 765-33-3
Molecular weight: 86
m/z	intensity
28	59
29	63
31	75
32	31
38	5
39	30
41	19
42	78
43	531
44	63
45	141
46	31
47	8
52	3
53	34
54	8
55	36
56	14
57	22
58	999
59	156
60	39
61	7
65	8
66	15
67	17
69	12
70	19
71	50
72	8
73	8
74	8
75	7
85	25
86	220
87	21
88	8
