Mass Spectrum: 2-Butene ozonide
Formula: C4H8O3
CAS: 765-57-1
Molecular weight: 104
m/z	intensity
24	10
25	27
26	93
27	41
28	999
29	739
30	22
31	33
32	132
40	25
41	7
42	210
43	669
44	718
45	138
46	17
50	13
52	5
57	2
58	1
59	1
60	44
61	27
62	1
71	2
72	23
73	2
89	88
90	4
91	1
92	1
93	3
94	19
95	3
96	19
97	1
103	3
104	74
105	4
106	1
