Mass Spectrum: 1-Methyl-1-ethyl-1-silacyclobutane
Formula: C6H14Si
CAS: 765-45-7
Molecular weight: 114
m/z	intensity
58	999
59	130
60	30
70	120
71	20
72	110
85	100
86	770
87	80
88	20
114	180
115	21
116	7
