Mass Spectrum: 2-Methyl-1-ethylpyrrolidine
Formula: C7H15N
CAS: 765-79-7
Molecular weight: 113
m/z	intensity
26	107
27	102
29	228
30	145
31	76
37	38
38	48
39	300
40	104
41	79
42	593
43	500
45	104
50	38
51	45
52	52
53	66
54	104
55	207
56	297
57	242
58	183
59	142
65	35
66	31
67	83
68	145
69	361
70	267
71	114
72	66
73	59
77	45
78	35
79	48
80	45
81	52
82	55
83	62
84	242
85	169
86	68
87	48
91	65
92	28
93	31
94	35
95	58
96	38
97	35
98	999
99	100
100	93
101	18
102	38
110	31
111	38
112	361
113	825
114	69
115	28
