Mass Spectrum: Phosphine, tris(phenylmethyl)-
Formula: C21H21P
CAS: 7650-89-7
Molecular weight: 304
m/z	intensity
26	3
27	6
28	11
29	8
32	1
37	0
38	2
39	33
40	3
41	31
42	4
43	41
44	1
45	1
46	0
47	2
49	0
50	4
51	18
52	4
53	3
54	2
55	30
56	11
57	56
58	2
59	0
60	0
61	0
62	1
63	14
64	3
65	122
66	8
67	9
68	4
69	26
70	12
71	34
72	1
73	0
74	0
75	1
76	3
77	31
78	33
79	7
80	3
81	15
82	6
83	20
84	6
85	21
86	3
87	0
88	0
89	12
90	5
91	999
92	81
93	7
94	2
95	18
96	7
97	21
98	4
99	7
100	0
102	1
103	1
104	1
105	3
106	1
107	7
108	3
109	27
110	5
111	15
112	3
113	6
114	0
115	2
116	0
117	0
119	1
120	5
121	34
122	5
123	8
124	4
125	8
126	3
127	5
128	1
129	0
130	0
131	0
132	0
133	9
134	6
135	141
136	13
137	5
138	2
139	33
140	3
141	3
142	0
145	0
147	0
149	3
150	2
151	4
152	5
153	3
154	2
155	3
156	0
157	0
161	0
162	0
163	1
164	1
165	10
166	6
167	9
168	3
169	2
170	0
176	0
177	1
178	6
179	10
180	11
181	12
182	7
183	6
184	1
185	9
186	1
190	0
191	1
192	1
193	2
194	1
195	1
196	1
197	2
198	0
199	0
200	0
201	0
204	0
205	1
206	0
207	1
208	1
209	1
210	1
211	4
212	6
213	182
214	30
215	2
217	0
218	0
219	1
220	0
221	1
222	0
223	0
224	0
225	1
230	2
231	4
232	0
233	0
234	0
236	0
238	1
239	1
247	0
249	0
250	0
251	1
252	0
253	1
261	0
262	0
263	0
264	0
265	0
266	0
267	1
269	0
270	1
272	0
273	0
274	0
275	1
276	5
277	1
279	0
281	0
289	0
290	0
291	0
292	0
293	0
294	0
295	0
301	0
302	3
303	67
304	302
305	67
306	8
