Mass Spectrum: .alpha.-d-Lyxofuranosyl bromide, cyclic 2,3-(ethylboronate) 5-acetate
Formula: C9H14BBrO5
CAS: 76521-00-1
Molecular weight: 292
m/z	intensity
25	1
26	14
27	54
28	45
29	88
30	3
31	9
32	7
36	0
37	2
38	6
39	56
40	13
41	48
42	33
43	999
44	27
45	15
47	0
49	0
50	2
51	5
52	6
53	17
54	11
55	144
56	17
57	56
58	2
59	1
60	1
61	1
62	0
65	1
66	1
67	4
68	25
69	55
70	32
71	14
72	1
73	44
74	1
75	0
77	0
78	3
79	1
80	2
81	19
82	13
83	47
84	5
85	9
86	9
87	4
91	0
92	2
93	1
94	0
95	5
96	17
97	20
98	19
99	26
100	1
101	2
103	1
105	2
106	1
107	4
108	1
109	5
110	26
111	102
112	8
113	6
114	1
115	12
116	0
117	0
119	2
120	0
121	3
122	4
123	19
124	27
125	40
126	4
127	3
128	0
129	0
133	1
134	0
135	3
136	0
137	3
138	0
139	3
140	5
141	7
142	1
143	0
147	1
148	0
149	2
150	0
151	1
152	31
153	127
154	10
155	2
156	0
157	0
159	0
160	0
161	2
162	0
163	2
165	0
169	0
170	2
171	8
172	0
177	1
179	0
182	0
183	1
189	1
190	1
191	1
192	0
198	0
199	2
203	0
204	1
205	0
206	1
211	0
212	45
213	192
214	18
215	2
219	0
221	0
231	2
232	11
233	3
234	10
235	0
