Mass Spectrum: 2,4-Diamino-6-[[m-bromobenzyl]methylamino]pteridine
Formula: C14H14BrN7
CAS: 76532-17-7
Molecular weight: 359
m/z	intensity
42	614
43	999
44	150
45	23
49	10
50	49
51	59
52	41
53	167
54	43
55	31
56	8
57	18
58	12
60	8
62	46
63	129
64	34
65	29
66	36
67	52
68	101
69	155
70	22
73	29
74	12
75	21
76	26
77	34
78	15
79	53
80	112
81	12
82	10
87	8
89	354
90	369
91	45
92	13
93	14
94	21
95	54
96	15
102	8
105	10
106	28
107	56
108	21
115	13
116	9
117	11
119	10
120	12
121	71
122	104
123	12
133	10
134	42
135	43
143	10
149	325
150	26
161	12
162	24
163	15
169	210
171	152
172	10
173	20
176	11
188	15
189	13
190	318
191	29
196	32
198	33
200	20
204	98
205	16
359	174
360	29
361	149
362	24
