Mass Spectrum: Mifobate
Formula: C11H17ClO7P2
CAS: 76541-72-5
Molecular weight: 358
m/z	intensity
15	21
28	2
29	7
30	1
31	10
33	1
36	1
38	1
39	7
40	1
44	1
45	8
47	31
48	3
49	4
50	11
51	19
52	2
53	1
61	2
62	14
63	63
64	3
65	10
66	2
69	1
73	9
74	6
75	32
76	13
77	33
78	6
79	133
80	13
81	4
84	1
85	4
86	4
87	8
88	3
89	75
90	10
91	19
93	274
94	8
95	28
96	3
97	3
99	6
100	1
101	6
102	6
103	6
104	5
105	5
106	2
107	4
109	999
110	38
111	74
112	13
113	31
114	4
115	2
116	1
117	1
118	1
119	3
120	2
121	1
123	23
124	19
125	78
126	13
127	26
128	3
129	1
130	1
135	1
136	10
137	6
138	17
139	186
140	27
141	72
142	9
143	5
144	1
145	1
150	1
151	1
152	3
153	6
154	3
155	31
156	5
157	10
158	2
159	1
165	1
167	1
168	1
169	1
170	2
171	6
172	2
173	16
174	1
175	1
177	1
182	3
183	4
184	1
185	2
187	87
188	12
189	16
190	1
191	3
197	3
198	1
199	2
201	1
202	6
203	8
204	3
205	1
213	1
214	6
215	1
216	1
217	4
218	5
219	60
220	3
221	14
222	1
223	4
231	1
232	2
233	9
234	14
235	4
236	5
237	1
245	1
246	2
247	2
249	623
250	65
251	211
252	20
253	2
326	1
327	2
328	2
329	1
330	1
358	83
359	10
360	31
361	4
362	1
