Mass Spectrum: 4-Benzamido-4-dichloromethyl-2-phenyl-2-imidazolin-5-one
Formula: C17H13Cl2N3O2
CAS: 76543-29-8
Molecular weight: 361
m/z	intensity
35	16
36	15
38	83
40	9
41	9
43	21
44	10
45	1
48	31
50	564
52	41
54	3
55	2
56	1
57	2
58	1
60	2
62	35
64	9
65	7
66	2
68	23
70	1
75	153
77	999
78	43
79	4
83	45
85	28
87	8
89	11
90	3
91	4
92	3
93	7
94	1
99	1
100	2
104	500
105	529
106	38
110	9
111	1
112	5
114	3
115	2
116	3
117	3
118	3
119	2
120	1
121	1
124	1
128	3
129	7
130	5
131	5
132	1
140	1
141	1
142	1
144	2
145	4
147	9
150	1
151	1
152	1
153	2
155	1
157	1
158	2
166	1
173	9
174	1
180	1
186	1
194	1
195	1
201	6
202	2
203	3
205	1
221	1
229	4
231	3
247	3
278	16
279	3
281	1
283	2
290	2
326	1
