Mass Spectrum: trans-1-Methyl-2-(2'-propenyl)cyclopropane
Formula: C7H12
CAS: 76588-95-9
Molecular weight: 96
m/z	intensity
39	710
40	200
41	490
42	100
43	70
50	30
51	90
52	20
53	360
54	999
55	940
56	40
58	20
65	90
66	110
67	460
68	150
69	40
77	90
79	230
80	190
81	660
82	40
95	20
