Mass Spectrum: 2-Ethylhexyl mercaptoacetate
Formula: C10H20O2S
CAS: 7659-86-1
Molecular weight: 204
m/z	intensity
14	6
15	7
17	2
18	7
26	4
27	93
28	10
29	176
30	4
31	13
32	1
33	1
34	1
36	1
38	1
39	54
40	9
41	317
42	58
43	567
44	19
45	19
46	25
47	178
48	5
49	8
50	1
51	4
52	2
53	16
54	10
55	237
56	120
57	999
58	44
59	6
60	6
61	5
63	1
64	1
65	2
66	1
67	10
68	10
69	91
70	233
71	640
72	39
73	5
74	30
75	59
76	4
77	6
78	1
79	2
81	4
82	15
83	101
84	46
85	8
86	2
87	2
88	1
89	1
92	61
93	16
94	4
95	1
97	10
98	6
99	2
101	2
102	1
105	4
106	2
111	7
112	173
113	126
114	10
115	2
119	2
125	1
127	1
129	2
133	2
144	1
145	24
146	3
147	3
155	2
157	3
161	2
164	1
172	1
175	1
