Mass Spectrum: Benzeneacetic acid, 4-cyano-.alpha.-oxo-
Formula: C9H5NO3
CAS: 76590-50-6
Molecular weight: 175
m/z	intensity
26	5
27	17
28	3
29	6
35	0
36	1
37	8
38	12
39	10
40	2
41	0
42	0
43	5
44	2
45	43
46	0
47	0
48	0
49	10
50	70
51	104
52	19
53	4
54	0
60	3
61	5
62	9
63	10
64	7
65	7
66	0
69	7
72	1
73	8
74	45
75	170
76	110
77	8
78	1
84	0
85	2
86	3
87	4
88	2
89	0
90	1
91	0
95	0
98	1
99	13
100	8
101	12
102	649
103	46
104	3
105	0
111	0
112	0
113	0
114	0
119	1
128	0
129	1
130	999
131	108
132	7
133	0
146	0
147	1
161	0
162	0
169	1
175	9
176	2
177	0
