Mass Spectrum: Cycloheptanone, 2-chloro-
Formula: C7H11ClO
CAS: 766-66-5
Molecular weight: 146
m/z	intensity
26	44
27	262
28	112
29	110
30	5
31	4
36	12
37	10
38	29
39	259
40	74
41	550
42	188
43	123
44	37
45	10
48	7
49	24
50	23
51	47
52	17
53	103
54	112
55	999
56	306
57	47
58	9
60	5
61	18
62	69
63	21
64	22
65	20
66	25
67	168
68	268
69	146
70	50
71	14
73	8
74	5
75	63
76	32
77	39
78	19
79	41
80	17
81	153
82	170
83	250
84	558
85	42
88	27
89	19
90	33
91	24
92	20
93	98
94	8
95	21
96	6
97	32
98	5
101	5
102	98
103	14
104	40
105	11
109	19
110	27
111	566
112	63
113	7
115	8
116	6
117	25
118	17
119	9
131	4
144	7
145	24
146	90
147	15
148	29
