Mass Spectrum: Cyclohexene, 3-ethenyl-
Formula: C8H12
CAS: 766-03-0
Molecular weight: 108
m/z	intensity
25	0
26	19
27	194
29	41
30	0
34	0
36	0
37	8
38	22
39	285
40	37
41	239
42	12
43	2
45	2
46	1
47	0
48	0
49	3
50	45
51	103
52	71
53	109
54	129
55	25
56	3
57	1
58	4
59	0
60	0
61	3
62	8
63	29
64	7
65	96
66	67
67	187
68	16
69	1
70	0
71	0
72	0
73	2
74	8
75	10
76	7
77	304
78	145
79	999
80	228
81	57
82	3
83	0
84	0
85	0
86	0
87	1
89	7
90	4
91	209
92	26
93	641
94	51
95	2
98	0
101	0
102	1
103	8
104	3
105	18
106	5
107	49
108	345
109	31
110	1
