Mass Spectrum: 2-Methylphenylacetylene
Formula: C9H8
CAS: 766-47-2
Molecular weight: 116
m/z	intensity
21	0
22	0
24	3
25	8
26	15
27	11
30	2
31	6
33	0
34	24
36	9
37	22
38	48
39	156
40	3
41	9
44	5
45	5
48	6
49	11
50	89
51	92
52	8
53	5
54	0
55	8
56	0
58	180
59	9
60	7
61	36
62	96
63	199
64	29
65	72
66	6
68	0
72	2
73	14
74	60
75	41
76	11
77	3
78	1
79	0
84	4
85	13
86	26
87	28
88	27
89	178
90	22
97	0
98	4
99	3
100	1
101	1
110	7
111	1
113	25
114	28
115	999
116	653
117	60
118	1
