Mass Spectrum: Propanamide, 3-bromo-N-phenyl-
Formula: C9H10BrNO
CAS: 7661-07-6
Molecular weight: 227
m/z	intensity
37	4
38	16
39	70
40	11
41	5
42	2
43	1
44	1
45	2
46	1
49	0
50	16
51	36
52	16
53	4
54	4
55	34
56	4
58	0
60	0
61	3
62	8
63	32
64	32
65	118
66	50
67	4
74	5
75	3
76	6
77	64
78	7
79	4
80	1
81	2
82	1
83	0
86	0
88	0
89	1
90	3
91	22
92	54
93	999
94	75
95	5
103	1
104	2
105	4
107	91
109	92
110	2
117	1
118	3
119	10
120	19
121	2
123	0
125	0
128	0
130	0
131	0
132	0
133	1
134	0
135	9
136	0
137	10
138	0
139	0
146	1
147	5
148	6
149	1
155	0
161	0
162	0
165	0
166	0
172	0
181	0
184	0
196	0
197	0
198	0
199	0
212	0
227	80
228	9
229	77
230	7
231	1
