Mass Spectrum: 4-(1,3-Dioxoisoindol-2-yl)phenyl acetate
Formula: C16H11NO4
CAS: 76644-24-1
Molecular weight: 281
m/z	intensity
37	26
38	43
39	51
40	12
41	30
42	123
43	999
44	34
49	13
50	237
51	98
52	149
53	49
55	8
62	18
63	48
64	19
65	31
66	10
73	7
74	91
75	76
76	337
77	51
78	28
79	23
80	22
81	7
92	48
93	3
102	17
103	11
104	96
105	8
106	6
107	9
115	9
127	15
128	11
130	26
140	13
141	8
166	15
167	24
168	4
194	85
195	4
239	274
240	47
241	3
252	24
253	4
281	389
282	67
283	4
