Mass Spectrum: Propanoic acid, 2-methyl-, 3-methyl-2-butenyl ester
Formula: C9H16O2
CAS: 76649-23-5
Molecular weight: 156
m/z	intensity
41	641
43	999
44	33
45	13
50	7
51	16
52	10
53	117
54	23
55	60
56	23
57	46
58	9
59	57
60	3
61	4
65	11
66	4
67	312
68	582
69	985
71	714
72	32
73	11
75	3
79	7
81	14
82	14
83	106
84	22
85	59
86	8
87	10
88	6
89	23
93	11
95	15
96	7
97	16
98	3
99	8
100	3
101	14
113	19
114	11
115	24
125	4
126	13
127	3
138	5
139	11
141	16
142	3
154	7
155	28
156	74
157	48
158	9
