Mass Spectrum: Ammonia
Formula: H3N
CAS: 7664-41-7
Molecular weight: 17
m/z	intensity
14	22
15	75
16	800
17	999
18	4
