Mass Spectrum: Methyl 2-methyl-2-(methoxy-3-hydroxypropoxy)amino-propanoate
Formula: C9H19NO5
CAS: 76664-32-9
Molecular weight: 221
m/z	intensity
29	141
30	298
31	33
39	28
40	34
41	231
42	141
43	76
44	54
45	104
55	62
56	999
57	386
58	85
59	461
60	55
62	196
69	188
70	113
71	62
72	41
73	443
74	70
75	69
87	139
88	295
101	204
102	210
103	56
104	91
115	70
116	13
117	14
118	14
120	183
121	13
130	70
131	13
132	21
146	62
147	14
149	13
162	197
163	20
187	55
190	84
206	69
221	218
