Mass Spectrum: Methyl 2-methyl-2-dimethoxyamino-propanoate
Formula: C7H15NO4
CAS: 76664-33-0
Molecular weight: 177
m/z	intensity
29	82
30	40
31	123
41	80
42	40
43	41
44	32
45	81
46	49
55	67
56	695
57	81
58	41
59	124
69	163
70	56
71	57
72	56
73	213
74	57
75	56
76	999
77	81
87	82
88	170
89	41
101	221
102	122
103	41
115	73
116	89
118	648
119	81
130	107
131	41
146	66
162	81
177	155
