Mass Spectrum: N(1-Methoxycarbonyl-1-methyl)ethyl-2-aza-1,3-dioxane
Formula: C8H15NO4
CAS: 76664-34-1
Molecular weight: 189
m/z	intensity
29	208
30	316
31	381
32	35
39	70
40	64
41	467
42	368
43	172
44	72
45	144
46	36
55	144
56	708
57	105
58	136
59	439
60	263
61	57
69	307
70	106
71	70
72	72
73	491
74	64
101	284
114	43
130	999
131	100
189	56
