Mass Spectrum: Hexacontane
Formula: C60H122
CAS: 7667-80-3
Molecular weight: 842
m/z	intensity
26	1
27	15
28	20
29	42
30	1
31	1
36	0
39	13
40	3
41	106
42	35
43	400
44	22
45	0
51	0
52	0
53	5
54	23
55	211
56	136
57	999
58	46
59	4
60	1
65	0
66	6
67	49
68	63
69	250
70	142
71	866
72	48
73	6
77	2
78	0
79	6
80	10
81	61
82	145
83	342
84	120
85	687
86	48
87	7
91	4
92	1
93	4
94	9
95	53
96	137
97	442
98	104
99	336
100	28
101	2
104	0
105	3
106	0
107	4
108	5
109	33
110	63
111	266
112	85
113	256
114	24
115	3
116	0
117	0
118	0
119	4
120	0
121	5
122	8
123	28
124	53
125	167
126	75
127	207
128	22
129	4
131	0
132	0
133	3
135	4
136	5
137	21
138	44
139	104
140	66
141	171
142	20
143	3
144	0
145	1
147	4
148	0
149	1
150	1
151	8
152	32
153	77
154	62
155	142
156	18
157	1
159	0
161	0
163	1
165	4
166	25
167	59
168	57
169	128
170	16
171	2
175	1
178	0
179	2
180	22
181	47
182	53
183	107
184	16
185	2
189	0
191	0
193	1
194	21
195	38
196	51
197	96
198	14
199	1
203	0
207	5
208	21
209	31
210	48
211	86
212	13
213	1
217	0
221	2
222	17
223	27
224	44
225	77
226	13
227	1
231	0
235	1
236	17
237	24
238	41
239	69
240	12
241	1
247	0
249	1
250	16
251	20
252	40
253	63
254	12
255	0
256	0
263	0
264	15
265	18
266	38
267	58
268	11
269	0
277	0
278	14
279	17
280	35
281	53
282	11
283	0
284	0
291	0
292	12
293	14
294	33
295	48
296	11
297	1
305	0
306	11
307	13
308	32
309	44
310	10
311	0
320	11
321	12
322	31
323	41
324	9
325	0
334	10
335	12
336	29
337	39
338	9
339	0
347	0
348	9
349	10
350	27
351	35
352	9
353	0
361	0
362	8
363	8
364	26
365	34
366	8
367	0
376	7
377	9
378	24
379	31
380	8
381	0
390	7
391	8
392	23
393	30
394	9
395	0
404	6
405	7
406	22
407	28
408	8
409	0
418	6
419	7
420	21
421	27
422	8
423	0
432	5
433	6
434	20
435	25
436	7
437	0
446	5
447	6
448	19
449	26
450	8
451	0
460	4
461	5
462	18
463	25
464	7
465	0
474	4
475	5
476	17
477	24
478	8
479	0
488	3
489	5
490	17
491	23
492	7
493	1
502	4
503	4
504	16
505	21
506	8
507	0
516	4
517	4
518	15
519	22
520	8
521	0
530	3
531	3
532	14
533	22
534	8
535	0
544	3
545	4
546	15
547	23
548	8
549	1
558	2
559	2
560	13
561	21
562	8
563	2
571	0
572	11
573	6
574	20
575	24
576	9
577	1
586	2
587	3
588	17
589	24
590	10
591	2
600	1
601	2
602	11
603	22
604	9
605	2
614	0
615	1
616	10
617	19
618	8
619	2
628	1
629	1
630	10
631	19
632	8
633	1
642	0
643	1
644	10
645	20
646	10
647	2
656	0
657	0
658	9
659	18
660	8
661	2
662	0
671	0
672	8
673	18
674	9
675	2
685	0
686	8
687	17
688	8
689	1
699	0
700	7
701	17
702	13
703	4
704	0
714	7
715	17
716	9
717	2
728	6
729	17
730	8
731	2
742	6
743	18
744	9
745	2
756	6
757	16
758	9
759	2
768	1
769	0
770	6
771	17
772	9
773	2
784	5
785	18
786	8
787	2
798	2
799	11
800	6
801	1
812	1
813	8
814	5
815	1
827	0
840	2
841	4
842	35
843	21
844	6
845	0
