Mass Spectrum: Flutriafol
Formula: C16H13F2N3O
CAS: 76674-21-0
Molecular weight: 301
m/z	intensity
74	13
75	94
82	167
83	104
93	19
95	182
96	19
109	39
113	12
122	11
123	999
124	75
138	20
151	14
164	552
165	47
169	18
170	61
171	14
181	10
183	19
188	14
198	11
199	10
201	26
219	255
220	38
