Mass Spectrum: Bicyclo[3.2.0]hept-2-en-6-one, 7,7-dimethyl-
Formula: C9H12O
CAS: 767-85-1
Molecular weight: 136
m/z	intensity
25	3
26	31
27	219
28	33
29	39
31	4
32	2
33	4
37	25
38	82
39	587
40	185
41	360
42	529
43	70
44	4
45	7
49	5
50	52
51	110
52	45
53	91
54	18
55	69
56	12
61	12
62	33
63	75
64	21
65	239
66	526
67	104
68	21
69	18
70	999
71	40
72	3
74	9
75	5
76	4
77	330
78	56
79	130
80	31
81	23
82	14
89	8
91	374
92	42
93	663
94	91
95	34
96	4
103	16
105	19
107	38
108	468
109	43
117	6
121	41
122	4
135	5
136	24
