Mass Spectrum: 6-Bromopurine
Formula: C5H3BrN4
CAS: 767-69-1
Molecular weight: 198
m/z	intensity
36	7
38	618
39	330
40	90
41	36
42	17
43	15
44	7
50	51
51	95
52	44
53	274
54	21
55	3
64	177
65	590
66	78
67	132
68	5
76	14
77	46
79	213
80	28
81	211
82	17
91	97
92	422
93	80
94	10
105	14
106	17
107	6
108	12
117	34
118	37
119	999
120	101
121	5
129	6
130	24
131	6
132	19
143	30
144	18
145	29
146	18
150	2
170	17
172	16
198	393
199	32
200	381
201	31
