Mass Spectrum: Androst-5-ene-3,17-diol, 4,4-dimethyl-, diacetate, (3.beta.,17.beta.)-
Formula: C25H38O4
CAS: 7673-20-3
Molecular weight: 402
m/z	intensity
27	18
28	12
29	71
39	19
41	175
42	21
43	999
44	31
45	22
53	37
54	8
55	172
56	17
57	56
60	14
65	19
66	7
67	96
68	20
69	133
70	12
71	27
73	11
77	62
78	14
79	112
80	19
81	161
82	21
83	42
84	10
85	16
91	158
92	28
93	186
94	43
95	127
96	23
97	28
98	9
99	8
103	13
104	11
105	190
106	50
107	179
108	49
109	82
110	14
111	20
115	22
116	14
117	55
118	33
119	209
120	76
121	125
122	35
123	53
124	10
125	9
127	11
128	21
129	45
130	20
131	105
132	47
133	259
134	78
135	169
136	41
137	29
141	16
142	18
143	60
144	28
145	120
146	55
147	131
148	76
149	113
150	19
151	17
153	14
155	26
156	16
157	69
158	27
159	88
160	57
161	95
162	20
163	16
165	11
167	10
169	23
170	13
171	142
172	41
173	110
174	28
175	30
177	11
179	13
180	17
181	9
183	26
184	11
185	66
186	30
187	62
188	21
189	19
191	8
193	9
195	10
197	53
198	18
199	63
200	26
201	48
202	13
203	10
211	32
212	22
213	50
214	37
215	27
216	13
217	14
220	60
221	14
225	44
226	15
227	27
228	9
229	14
231	11
232	10
239	58
240	18
241	34
242	11
243	59
244	14
253	15
255	9
256	9
257	37
258	18
259	49
260	41
261	22
267	156
268	61
271	10
272	25
273	20
274	317
275	73
276	11
281	15
282	52
283	36
285	113
286	32
299	107
300	42
301	19
303	11
313	20
314	14
327	658
328	182
329	25
342	487
343	146
344	24
345	29
360	15
387	24
388	5
402	243
403	73
404	10
