Mass Spectrum: 5-Methylenehydantoin
Formula: C4H4N2O2
CAS: 7673-65-6
Molecular weight: 112
m/z	intensity
38	0
39	13
40	56
41	844
42	13
43	17
44	11
45	1
46	0
47	0
50	1
51	2
52	3
53	5
54	3
55	2
56	1
57	3
59	0
60	0
63	1
65	0
66	1
67	1
68	7
69	31
70	13
71	2
73	0
77	0
79	0
81	1
82	1
83	2
84	3
85	1
88	0
89	1
91	1
92	0
93	0
94	1
95	1
96	1
97	2
98	0
99	0
100	0
105	1
109	1
110	0
111	1
112	999
113	18
114	2
115	0
