Mass Spectrum: Androst-5-en-3-ol, 4,4-dimethyl-, (3.beta.)-
Formula: C21H34O
CAS: 7673-17-8
Molecular weight: 302
m/z	intensity
41	999
42	110
43	740
44	70
45	40
50	10
51	40
52	30
53	270
54	40
55	650
56	70
57	370
58	100
59	30
63	10
64	10
65	120
66	40
67	490
68	60
69	220
70	30
71	60
72	10
73	10
77	270
78	70
79	400
80	70
81	440
82	50
83	120
84	20
85	30
91	440
92	80
93	420
94	90
95	650
96	100
97	60
98	30
99	20
102	10
103	40
104	20
105	440
106	120
107	380
108	130
109	270
110	40
111	30
112	10
115	60
116	30
117	110
118	40
119	300
120	110
121	260
122	70
123	200
124	40
125	20
126	10
127	10
128	50
129	60
130	20
131	140
132	40
133	320
134	110
135	420
136	80
137	100
138	170
139	30
141	20
142	20
143	50
144	20
145	140
146	30
147	210
148	160
149	300
150	50
151	30
152	40
153	60
154	20
155	10
156	10
157	40
158	20
159	120
160	40
161	140
162	100
163	140
164	20
165	20
166	10
167	10
169	10
171	30
172	10
173	160
174	30
175	150
176	50
177	40
178	10
179	10
185	30
186	10
187	80
188	40
189	70
190	20
191	20
199	70
200	10
201	80
202	60
203	50
204	20
207	10
213	20
214	30
215	60
216	90
217	30
218	10
219	190
220	50
227	20
228	10
229	20
230	30
231	20
232	10
233	10
241	180
242	20
243	40
244	10
245	160
246	30
255	10
256	10
258	10
259	30
260	10
268	10
269	600
270	140
271	20
283	30
284	160
285	40
287	50
288	20
302	200
303	50
