Mass Spectrum: 5.alpha.-Androstan-3.beta.-ol, 4,4-dimethyl-
Formula: C21H36O
CAS: 7673-19-0
Molecular weight: 304
m/z	intensity
41	999
42	90
43	810
44	170
45	130
50	10
51	30
52	10
53	220
54	40
55	680
56	60
57	310
58	20
59	40
60	40
65	60
66	20
67	520
68	120
69	430
70	40
71	140
72	40
73	30
77	150
78	30
79	310
80	70
81	580
82	300
83	170
84	20
85	50
86	20
87	10
91	190
92	40
93	320
94	120
95	670
96	150
97	80
98	10
105	120
106	40
107	250
108	160
109	530
110	130
111	50
115	20
116	10
117	30
119	60
120	40
121	300
122	130
123	150
124	30
125	10
126	10
127	100
128	40
129	20
131	20
133	70
134	40
135	310
136	180
137	120
139	30
140	20
141	10
147	90
148	80
149	190
150	60
151	60
152	20
153	20
154	10
159	10
161	80
162	80
163	80
164	10
165	20
167	10
173	20
174	10
175	190
176	50
177	130
178	20
180	10
181	10
182	10
184	10
187	10
189	110
190	20
191	50
192	20
193	10
194	10
201	30
202	60
203	190
204	90
205	20
207	20
215	20
216	30
217	50
218	10
219	30
220	20
221	20
222	20
230	10
231	10
232	20
243	50
244	10
245	70
246	20
247	170
248	40
249	10
271	260
272	50
277	20
285	10
286	190
287	40
289	50
290	10
304	140
305	40
