Mass Spectrum: Androst-5-en-3.beta.-ol, 4,4-dimethyl-, acetate
Formula: C23H36O2
CAS: 7673-18-9
Molecular weight: 344
m/z	intensity
41	300
42	32
43	999
44	42
45	22
50	2
51	12
52	7
53	80
54	10
55	250
56	17
57	47
58	5
59	7
60	7
61	5
63	5
64	2
65	32
66	12
67	190
68	17
69	105
70	7
71	15
72	5
73	2
77	77
78	17
79	140
80	25
81	170
82	20
83	45
84	5
85	7
91	140
92	27
93	152
94	32
95	260
96	27
97	15
98	2
99	5
103	10
104	5
105	160
106	45
107	142
108	45
109	85
110	10
111	7
115	15
116	10
117	37
118	15
119	155
120	55
121	115
122	25
123	40
124	7
125	5
127	5
128	12
129	20
130	7
131	52
132	20
133	157
134	60
135	197
136	45
137	5
138	2
139	2
141	5
142	7
143	17
144	7
145	52
146	17
147	105
148	77
149	130
150	22
151	5
153	5
154	2
155	2
156	5
157	15
158	5
159	45
160	12
161	50
162	72
163	47
164	7
165	2
166	2
167	5
168	2
169	5
170	2
171	10
172	2
173	57
174	12
175	37
176	10
177	5
180	5
185	12
186	2
187	40
188	15
189	25
190	5
199	27
200	10
201	42
202	20
203	15
213	12
214	15
215	22
216	90
217	20
227	7
228	2
229	10
230	5
241	42
242	7
243	10
244	5
245	12
246	2
255	12
256	15
257	5
269	250
270	55
271	7
283	95
284	102
298	20
299	2
301	5
302	5
328	7
344	30
345	7
