Mass Spectrum: Trichloromelamine
Formula: C3H3Cl3N6
CAS: 7673-09-8
Molecular weight: 228
m/z	intensity
12	13
13	30
14	6
15	2
16	3
17	11
18	1
24	4
25	1
26	11
27	93
28	211
29	36
30	3
31	3
34	4
35	175
36	999
37	52
38	325
39	19
40	20
41	146
42	180
43	309
44	9
47	8
48	6
49	18
50	23
51	18
52	21
53	79
54	15
55	3
56	5
57	2
58	3
61	9
62	53
63	7
64	24
65	2
66	13
67	120
68	374
69	22
70	127
71	1
72	81
73	4
74	13
75	9
76	120
77	217
78	46
79	66
80	4
81	6
82	72
83	36
84	5
85	16
86	2
87	26
88	2
89	17
90	9
91	2
92	2
93	163
94	11
95	11
96	8
97	7
98	4
99	1
100	1
101	7
102	157
103	8
104	61
105	4
106	3
108	3
109	16
110	34
111	7
112	1
113	5
114	22
115	19
116	8
117	93
118	21
119	51
120	6
121	5
123	52
124	35
125	10
126	57
127	7
128	7
129	13
130	4
131	5
132	5
133	1
134	1
136	11
138	16
139	1
140	7
141	1
142	1
143	33
144	102
145	25
146	32
147	5
149	1
151	4
152	9
153	51
154	8
155	36
156	3
157	13
158	114
159	38
160	74
161	12
162	17
163	3
164	2
165	1
166	7
167	2
168	4
169	1
170	1
172	1
177	2
178	93
179	9
180	61
181	6
182	11
183	1
184	1
186	5
187	2
188	4
189	2
190	1
191	1
192	15
193	339
194	213
195	233
196	135
197	48
198	23
199	3
226	1
227	20
228	653
229	55
230	641
231	45
232	215
233	12
234	23
235	2
