Mass Spectrum: 3-Trimethylsilyloxydecanedioic acid, dimethyl ester
Formula: C15H30O5Si
CAS: 76745-07-8
Molecular weight: 318
m/z	intensity
53	14
54	16
55	203
56	23
57	46
58	55
59	465
60	31
61	50
67	65
68	26
69	133
70	10
71	46
72	29
73	999
74	145
75	305
76	20
77	17
79	28
80	8
81	63
82	10
83	31
84	8
85	23
87	20
88	11
89	873
90	71
91	69
93	34
94	11
95	264
96	22
97	55
98	8
99	13
101	56
103	32
105	113
106	10
107	14
109	31
111	16
113	11
115	19
116	11
117	50
119	55
121	43
122	11
123	37
127	7
128	8
129	56
130	31
131	98
132	10
133	248
134	25
135	11
136	8
137	81
138	8
139	10
141	77
142	11
143	47
145	11
146	11
147	22
155	10
159	168
160	17
161	7
166	10
169	145
170	17
171	16
175	363
176	17
177	16
196	8
197	90
198	10
201	20
204	2
211	10
216	31
229	168
230	26
231	8
237	2
239	23
245	55
246	8
255	10
261	10
271	53
272	8
303	74
304	8
