Mass Spectrum: 5-(2',3',4',6'-Tetra-O-acetyl-.beta.-D-glucopyranosyloxy)-1,4-naphthoquinone
Formula: C24H24O12
CAS: 76768-53-1
Molecular weight: 504
m/z	intensity
43	999
105	90
109	630
118	210
127	270
146	170
169	570
174	350
187	80
211	70
229	70
271	60
331	50
504	4
