Mass Spectrum: 5-tert-Butyl-2,2-dimethyl-3(2H)-furanone
Formula: C10H16O2
CAS: 76777-48-5
Molecular weight: 168
m/z	intensity
41	100
57	50
67	620
82	90
95	999
109	320
111	180
127	30
153	40
168	540
