Mass Spectrum: 5,6-Dihydro-4-ethyl-2-phenylamino-4H-1,3-thiazin-5-one
Formula: C12H14N2OS
CAS: 76780-34-2
Molecular weight: 234
m/z	intensity
40	84
41	818
42	201
43	192
44	60
45	193
46	129
47	83
48	22
49	22
50	147
51	622
52	100
53	41
54	68
55	216
56	288
57	251
58	102
59	71
60	40
61	9
62	20
63	61
64	66
65	204
66	73
67	41
68	45
69	124
70	41
71	59
72	100
73	31
74	83
75	41
76	99
77	999
78	126
79	19
80	9
81	37
82	42
83	124
84	35
85	63
86	11
87	22
88	22
89	38
90	21
91	171
92	177
93	501
94	48
95	14
96	17
97	21
98	12
99	14
100	62
101	15
102	42
103	58
104	625
105	76
106	21
108	17
109	59
110	100
111	22
114	17
115	15
116	21
117	90
118	251
119	126
120	22
121	17
123	15
124	16
130	18
131	51
132	115
133	80
134	63
135	775
136	367
137	105
138	23
144	16
145	64
146	9
148	9
149	83
150	36
151	9
158	10
159	308
160	47
163	141
164	21
165	8
173	14
176	21
177	702
178	105
179	40
191	107
192	616
193	84
194	41
201	17
205	17
233	19
234	463
235	83
236	31
