Mass Spectrum: 5,6-Dihydro-4-methyl-2-phenylamino-4H-1,3-thiazin-5-one
Formula: C11H12N2OS
CAS: 76780-33-1
Molecular weight: 220
m/z	intensity
40	81
41	224
42	546
43	212
44	181
45	240
46	231
47	232
48	96
49	79
50	264
51	762
52	121
53	47
54	49
55	68
56	45
57	49
58	43
59	69
60	75
61	33
62	36
63	75
64	77
65	178
66	72
67	11
68	30
69	228
70	51
71	10
72	10
73	21
74	33
75	30
76	120
77	999
78	163
79	9
82	22
83	296
84	22
85	166
86	138
87	51
88	10
89	11
90	10
91	114
92	91
93	299
94	11
96	12
102	9
103	51
104	598
105	41
108	12
109	47
110	71
111	10
117	40
118	185
119	76
120	87
131	23
132	10
134	21
135	429
136	304
137	78
138	9
144	11
145	324
146	81
148	10
149	49
150	35
159	10
163	135
164	9
175	9
176	9
177	292
178	385
179	61
180	22
187	12
191	44
192	20
218	9
219	29
220	311
221	40
222	8
