Mass Spectrum: 4H-Pyran-2-carboxylic acid, 6-[p-chlorophenyl]-4-oxo-, ethyl ester
Formula: C14H11ClO4
CAS: 76781-74-3
Molecular weight: 278
m/z	intensity
41	84
42	13
43	46
45	43
50	92
51	109
53	76
55	11
56	2
57	13
60	5
61	13
62	32
63	49
65	3
69	999
70	20
71	31
73	16
74	59
75	140
76	28
77	9
81	1
82	5
84	6
85	13
86	20
87	23
88	10
89	30
91	6
97	15
98	19
99	37
101	129
102	22
103	14
105	2
109	3
111	67
113	62
114	32
115	29
116	9
117	6
118	3
123	13
125	7
129	1
131	45
132	4
136	476
137	33
138	146
139	112
141	52
142	5
148	3
149	117
151	54
159	26
163	12
165	9
167	3
171	3
176	10
178	240
180	83
181	6
193	12
194	8
195	5
196	1
205	98
206	47
207	28
208	10
215	5
222	307
224	103
225	8
233	26
235	13
249	7
250	382
252	128
253	11
275	1
278	470
280	155
281	14
