Mass Spectrum: 2H-Tetrazole, 2-methyl-5-(trifluoromethyl)-
Formula: C3H3F3N4
CAS: 768-27-4
Molecular weight: 152
m/z	intensity
40	70
41	10
42	20
43	150
44	30
45	10
46	10
50	150
51	10
53	50
54	10
55	70
62	50
69	950
70	10
71	10
76	60
77	10
78	20
90	20
96	200
105	300
106	10
123	10
124	999
125	50
