Mass Spectrum: Tricyclo[3.3.2.0(2,8)]deca-3,6-diene
Formula: C10H12
CAS: 768-46-7
Molecular weight: 132
m/z	intensity
26	9
27	107
28	13
29	6
30	0
31	1
36	0
37	5
38	26
39	181
40	24
41	45
42	4
43	3
44	9
45	1
46	1
48	1
49	3
50	65
51	135
52	67
53	62
54	82
55	7
56	3
57	2
58	3
59	0
60	1
61	8
62	20
63	74
64	36
65	139
66	50
67	56
68	4
69	2
70	1
71	1
72	1
73	4
74	20
75	17
76	22
77	165
78	367
79	77
80	7
81	1
82	2
83	2
85	2
86	5
87	4
88	1
89	34
90	8
91	999
92	103
93	5
94	1
95	2
97	1
98	2
99	2
100	1
101	4
102	26
103	134
104	589
105	100
106	6
107	1
108	1
109	1
110	1
112	1
113	2
114	3
115	201
116	110
117	462
118	59
119	3
120	1
122	2
123	1
126	4
127	26
128	61
129	55
130	12
131	244
132	345
133	43
134	3
