Mass Spectrum: 1,1,1,3,3,3-Hexafluoro-2-[1,1-bis-(methoxycarbonyl)ethoxyimino propane
Formula: C9H9F6NO5
CAS: 76808-83-8
Molecular weight: 325
m/z	intensity
41	43
42	76
43	999
44	76
45	65
47	83
50	21
51	45
54	24
55	145
56	65
57	245
58	23
59	547
60	25
67	27
69	167
70	21
75	201
76	24
77	102
78	24
81	25
83	65
85	201
86	23
89	67
91	63
92	26
100	27
101	125
102	445
103	43
105	176
106	25
110	26
112	27
113	102
114	21
115	21
117	387
118	21
123	24
145	163
146	23
238	23
266	143
267	12
294	4
306	8
