Mass Spectrum: N-(Methylsulfonyl)-N,O-bis(trimethylsilyl)hydroxylamine
Formula: C7H21NO3SSi2
CAS: 76802-31-8
Molecular weight: 255
m/z	intensity
45	80
59	50
73	999
75	110
92	70
103	10
105	10
115	20
119	30
133	80
137	170
147	340
196	10
210	10
225	130
240	60
