Mass Spectrum: 1,1,1,3,3,3-Hexafluoro-2-[(2-methoxycarbonyl)prop-2-oxyimino]propane
Formula: C8H9F6NO3
CAS: 76808-82-7
Molecular weight: 281
m/z	intensity
39	213
40	71
41	534
42	213
43	999
44	73
45	65
55	65
56	23
57	76
58	725
59	613
60	23
61	63
67	81
69	446
70	81
73	956
74	104
75	32
76	62
87	21
96	27
99	24
100	57
101	423
102	63
112	57
161	56
164	34
222	635
223	64
224	8
