Mass Spectrum: Benzenemethanol, .alpha.-[1-(ethylmethylamino)ethyl]-
Formula: C12H19NO
CAS: 7681-79-0
Molecular weight: 193
m/z	intensity
42	26
43	9
44	15
50	6
51	18
52	6
55	5
56	31
57	12
58	142
59	6
70	18
77	73
78	19
79	25
86	999
87	62
91	13
105	29
106	21
115	7
117	7
148	5
