Mass Spectrum: N-Acetyl-dl-norleucine
Formula: C8H15NO3
CAS: 7682-16-8
Molecular weight: 173
m/z	intensity
12	3
13	3
14	24
15	65
16	3
17	4
18	13
24	1
25	4
26	26
27	138
28	110
29	103
30	237
31	7
32	2
37	7
38	21
39	122
40	86
41	289
42	125
43	582
44	136
45	15
46	11
47	2
49	2
50	9
51	14
52	11
53	69
54	34
55	68
56	137
57	72
58	13
59	7
60	122
61	5
62	2
63	4
64	2
65	10
66	11
67	48
68	57
69	59
70	36
71	23
72	15
73	32
74	190
75	29
76	3
77	4
78	7
79	8
80	16
81	47
82	12
83	9
84	57
85	106
86	999
87	67
88	37
89	6
90	1
91	3
92	3
93	3
94	13
95	10
96	59
97	9
98	21
99	171
100	12
101	6
102	14
103	1
104	2
105	1
106	4
107	5
108	4
109	10
110	4
111	6
112	29
113	21
114	15
115	8
116	9
117	159
118	9
119	3
120	1
121	1
122	2
123	1
125	1
126	2
127	17
128	274
129	43
130	32
131	11
132	1
135	1
137	3
144	9
145	1
155	19
156	3
158	3
173	25
174	3
