Mass Spectrum: N-(O-Nitrophenylthio)-l-leucine
Formula: C12H16N2O4S
CAS: 7685-67-8
Molecular weight: 284
m/z	intensity
12	9
13	2
14	7
15	38
16	23
17	5
18	19
24	1
25	5
26	39
27	263
28	268
29	133
30	225
31	4
32	18
33	10
34	26
36	5
37	36
38	69
39	311
40	55
41	569
42	175
43	999
44	462
45	137
46	21
47	7
48	47
49	9
50	79
51	111
52	81
53	73
54	51
55	79
56	34
57	86
58	37
59	10
60	12
61	14
62	25
63	102
64	103
65	141
66	57
67	37
68	74
69	165
70	105
71	30
72	10
73	22
74	164
75	43
76	38
77	565
78	181
79	41
80	67
81	36
82	48
83	21
84	97
85	21
86	335
87	24
88	10
89	8
90	59
91	315
92	84
93	133
94	23
95	45
96	212
97	75
98	319
99	27
100	17
101	10
102	6
103	19
104	28
105	132
106	239
107	26
108	147
109	70
110	45
111	11
112	12
113	29
114	18
115	13
116	9
117	14
118	22
119	22
120	5
121	18
122	29
123	51
124	57
125	118
126	16
127	9
128	9
129	15
130	11
131	94
132	57
133	22
134	16
135	45
136	43
137	22
138	228
139	35
140	45
141	10
142	7
143	4
144	4
145	6
146	3
147	6
148	14
149	36
150	13
151	9
152	9
153	8
154	260
155	106
156	19
157	7
158	3
159	15
160	5
161	10
162	12
163	35
164	25
165	9
166	6
167	8
168	5
169	9
170	3
171	5
172	3
173	11
174	13
175	14
176	31
177	27
178	34
179	9
180	8
181	5
182	4
183	9
184	6
185	4
186	5
187	4
188	3
189	5
190	3
191	7
192	5
193	3
194	3
195	3
196	14
197	5
198	14
199	9
200	4
201	3
202	2
203	5
204	3
205	9
206	38
207	8
208	7
209	2
210	3
211	2
212	3
213	3
214	5
215	2
216	3
217	1
218	2
219	1
220	3
221	2
222	18
223	5
224	3
225	2
227	3
228	1
229	1
231	1
237	1
238	18
239	8
240	4
241	1
252	1
284	7
