Mass Spectrum: Tricyclo[4.2.1.1(2,5)]deca-3,7-dien-9,10-diacetate
Formula: C14H16O4
CAS: 76853-18-4
Molecular weight: 248
m/z	intensity
26	1
27	21
28	19
29	5
38	2
39	34
40	4
41	17
42	7
43	648
44	14
45	4
49	2
50	6
51	19
52	8
53	31
54	8
55	13
56	3
57	5
60	2
61	1
62	2
63	9
64	5
65	40
66	12
67	10
68	5
69	3
70	3
71	3
74	1
75	1
76	2
77	24
78	13
79	17
80	5
81	72
82	999
83	70
84	5
85	3
86	3
87	2
88	2
89	5
90	2
91	35
92	8
93	3
94	4
95	4
96	5
97	2
98	3
99	6
100	1
101	1
102	4
103	9
104	4
105	11
106	2
107	3
108	1
109	1
113	1
114	1
115	46
116	43
117	126
118	30
119	9
120	5
121	5
122	4
123	3
124	88
125	10
126	3
127	11
128	82
129	33
130	15
131	19
132	3
133	7
134	3
135	2
136	1
140	1
141	4
142	1
144	2
145	38
146	200
147	36
148	4
149	6
159	1
160	1
162	1
163	3
164	6
165	1
170	1
177	1
188	38
189	8
190	1
205	1
206	4
207	1
248	3
249	1
