Mass Spectrum: 10-(Tetrahydropyran-2-yloxy)tricyclo[4.2.1.1(2,5)]deca-3,7-dien-9-one
Formula: C15H18O3
CAS: 76853-16-2
Molecular weight: 246
m/z	intensity
26	3
27	24
28	9
29	84
30	2
31	7
38	2
39	48
40	4
41	121
42	7
43	186
44	15
45	5
50	6
51	21
52	12
53	14
54	5
55	64
56	12
57	256
58	11
59	1
60	9
61	1
62	2
63	11
64	3
65	42
66	13
67	254
68	16
69	18
70	2
71	7
73	4
74	2
75	2
76	3
77	27
78	22
79	13
80	2
81	13
82	20
83	9
84	52
85	999
86	93
87	6
88	1
89	8
90	2
91	43
92	14
93	4
94	3
95	4
96	1
97	10
98	2
99	1
100	0
101	9
102	6
103	15
104	9
105	22
106	4
107	5
108	3
109	3
110	1
111	9
112	1
113	2
114	4
115	84
116	44
117	108
118	33
119	7
120	2
121	3
122	1
123	3
124	1
125	3
126	1
127	40
128	5
129	3
130	1
131	12
132	10
133	33
134	14
135	2
136	2
137	3
138	1
139	4
140	2
141	0
143	2
144	13
145	37
146	35
147	6
148	1
157	1
158	1
159	2
160	3
161	11
162	24
163	7
164	2
165	3
166	0
167	1
168	0
169	1
171	3
172	1
173	2
174	0
175	0
176	1
177	1
178	2
179	1
180	2
181	0
183	0
184	0
185	1
186	1
187	1
188	0
189	1
190	2
191	0
199	2
200	5
201	2
202	7
203	2
204	3
217	3
218	15
219	2
228	9
229	1
246	41
247	9
248	1
