Mass Spectrum: 1,2-Mono-O-isopropylidene-3,4,5,6-tetra-O-acetyl-D-mannitol
Formula: C17H26O10
CAS: 76867-27-1
Molecular weight: 390
m/z	intensity
72	140
85	140
101	999
111	220
115	180
127	20
129	150
153	640
170	150
171	170
187	20
213	40
273	80
375	180
