Mass Spectrum: Ergosta-4,22-diene
Formula: C28H46
CAS: 76866-88-1
Molecular weight: 382
m/z	intensity
41	219
43	625
55	936
56	52
57	234
67	364
68	67
69	999
70	163
71	75
79	263
80	56
81	627
82	146
83	438
91	192
93	396
94	126
95	419
96	97
97	109
105	250
106	77
107	348
108	370
109	529
110	68
119	135
120	61
121	222
122	98
123	159
125	188
131	78
133	177
134	194
135	285
137	51
145	116
146	76
147	354
148	80
149	205
159	107
160	58
161	259
162	65
163	93
173	71
175	125
201	71
213	63
215	99
216	54
229	66
230	104
231	57
242	85
255	444
256	241
257	541
258	136
259	53
269	73
283	56
284	355
285	161
286	56
339	141
367	94
380	146
382	792
383	220
384	66
