Mass Spectrum: 1,1-Cyclopropanedicarboxylic acid, 2-ethenyl-, diethyl ester
Formula: C11H16O4
CAS: 7686-78-4
Molecular weight: 212
m/z	intensity
25	2
26	50
27	351
28	63
29	999
30	39
31	45
37	10
38	43
39	274
40	145
41	215
42	39
43	104
44	20
45	65
46	5
47	6
50	15
51	46
52	20
53	120
54	159
55	142
56	17
57	205
58	11
59	6
60	10
61	12
62	14
63	38
64	25
65	234
66	436
67	212
68	34
69	27
70	20
71	19
72	11
73	17
74	1
75	2
76	2
77	80
78	12
79	219
80	26
81	46
82	156
83	67
84	14
85	223
86	22
87	10
88	18
89	6
90	5
91	11
92	31
93	149
94	202
95	106
96	15
97	64
98	15
99	70
100	21
101	4
104	2
105	25
106	2
107	3
108	6
109	29
110	138
111	101
112	33
113	7
114	4
115	36
116	5
120	85
121	297
122	94
123	22
124	5
125	12
126	3
127	36
128	18
129	3
130	5
132	2
133	20
134	3
135	1
136	3
137	24
138	184
139	200
140	40
141	7
142	2
143	4
155	3
156	6
157	2
158	2
159	2
160	7
161	3
162	3
163	2
164	2
165	6
166	266
167	276
168	46
169	6
182	1
183	5
184	11
185	4
198	3
212	138
213	19
214	4
