Mass Spectrum: 4-Geranyloxy-3-hydroxy-5-methoxyphthalaldehyde
Formula: C19H24O5
CAS: 76878-70-1
Molecular weight: 332
m/z	intensity
29	140
31	520
33	140
67	140
69	999
82	370
93	280
95	130
136	140
137	110
167	70
168	140
196	170
332	10
