Mass Spectrum: 3,4-Dimethylperhydro-1,3-oxazine
Formula: C6H13NO
CAS: 76888-60-3
Molecular weight: 115
m/z	intensity
15	94
26	22
27	104
28	140
29	103
30	96
31	18
38	9
39	90
40	18
41	171
42	742
43	747
44	401
45	51
52	8
53	13
54	34
55	95
56	259
57	291
58	284
59	16
60	16
68	22
69	29
70	524
71	214
72	244
73	18
84	105
85	56
86	272
87	108
100	999
101	64
114	245
115	526
116	47
