Mass Spectrum: Methyl 2,3-diacetamido-2,3-dideoxy-.beta.-D-glucopyranoside
Formula: C11H20N2O6
CAS: 7688-01-9
Molecular weight: 276
m/z	intensity
56	139
57	149
58	179
59	519
60	329
61	99
68	59
69	129
70	129
71	139
72	279
73	239
74	159
81	69
82	59
83	259
84	359
85	159
86	309
87	109
95	69
96	119
97	199
98	209
100	999
101	329
102	109
103	59
111	139
112	79
113	119
114	319
115	149
116	109
125	89
126	99
127	59
128	179
129	89
137	69
138	59
139	369
140	119
141	79
142	409
143	139
144	79
153	79
155	79
156	139
157	79
167	29
168	69
169	19
171	8
173	8
180	8
181	35
183	40
184	3
185	219
186	90
187	8
195	129
196	30
197	17
198	3
199	119
200	8
201	18
213	19
214	8
215	219
216	30
217	8
244	99
245	19
