Mass Spectrum: 4,5,6,7-Tetrahydro-2-phenyl-1H-1,3-diazepine
Formula: C11H14N2
CAS: 76894-37-6
Molecular weight: 174
m/z	intensity
34	3
36	2
37	3
38	9
39	75
40	70
41	128
42	64
43	218
44	67
45	10
47	1
49	1
50	41
51	125
52	21
53	9
54	7
55	61
56	36
57	60
58	9
59	5
60	1
61	1
62	6
63	20
64	10
65	13
66	6
67	20
68	18
69	45
70	109
71	51
72	12
73	16
74	9
75	17
76	63
77	344
78	30
79	12
80	4
81	26
82	10
83	42
84	9
85	32
86	9
87	8
88	3
89	51
90	55
91	31
92	5
93	7
94	3
95	25
96	9
97	30
98	6
99	8
102	6
103	55
104	244
105	96
106	10
107	5
108	3
109	16
110	6
111	18
112	3
113	5
115	9
116	49
117	999
118	141
119	21
120	21
121	9
122	5
123	11
124	4
125	9
126	2
127	4
128	2
129	2
130	14
131	22
132	8
133	5
134	24
135	11
136	2
137	5
138	1
139	4
140	1
141	2
143	6
144	20
145	110
146	46
147	7
148	11
153	2
155	1
156	4
157	3
158	1
159	63
160	6
167	1
169	2
171	4
173	660
174	511
175	57
176	3
