Mass Spectrum: 8-Azabicyclo[3.2.1]octane, 8-acetyl-
Formula: C9H15NO
CAS: 769-04-0
Molecular weight: 153
m/z	intensity
29	160
30	80
31	20
32	1
36	30
37	20
38	40
39	330
40	90
41	550
42	160
43	940
44	50
49	20
50	40
51	50
52	50
53	730
54	190
55	230
56	190
57	180
58	30
59	20
60	70
63	25
64	20
65	40
66	30
67	240
68	640
69	460
70	140
71	80
72	20
77	60
78	50
79	80
80	130
81	160
82	970
83	999
84	100
85	80
86	30
91	40
92	30
93	40
94	80
95	130
96	190
97	150
98	50
99	40
105	30
106	20
107	30
108	40
109	60
110	930
111	515
112	80
119	20
120	20
121	30
122	30
123	30
124	170
125	130
126	30
127	15
149	20
150	20
151	20
152	20
153	990
154	160
155	30
