Mass Spectrum: Vinyl benzoate
Formula: C9H8O2
CAS: 769-78-8
Molecular weight: 148
m/z	intensity
12	2
13	2
14	11
15	57
18	2
25	2
26	17
27	49
28	19
29	6
37	6
38	13
39	19
40	2
41	3
42	15
43	3
49	4
50	112
51	276
52	12
53	4
55	1
61	1
62	3
63	3
64	1
65	6
66	4
73	5
74	30
75	20
76	36
77	645
78	36
79	1
89	1
91	3
94	1
105	999
106	70
107	3
148	52
149	5
