Mass Spectrum: 3-Tolylphosphonicdifluoride
Formula: C7H7F2OP
CAS: 769-91-5
Molecular weight: 176
m/z	intensity
38	39
39	169
41	19
50	59
51	79
62	59
63	169
64	29
65	129
69	39
74	19
75	29
77	39
78	19
85	9
86	19
87	19
88	9
89	199
90	119
91	999
92	99
105	5
106	5
107	9
109	5
146	9
157	19
160	5
175	59
176	699
177	59
