Mass Spectrum: Pyridazin-3(2H)-one, 5-chloro-4-methoxy-2-phenyl-
Formula: C11H9ClN2O2
CAS: 76929-42-5
Molecular weight: 236
m/z	intensity
36	1
37	51
38	145
39	355
40	183
41	45
42	5
43	103
44	70
45	0
47	75
48	19
49	45
50	207
51	951
52	529
53	529
54	219
55	13
60	170
61	51
62	70
63	179
64	263
65	125
66	25
67	46
68	10
72	8
73	13
74	90
75	89
76	96
77	999
78	880
79	143
82	11
83	1
87	35
88	56
89	35
90	33
91	121
92	120
93	889
94	501
95	131
96	23
101	6
102	124
103	559
104	234
105	481
106	156
115	19
116	97
117	98
118	207
119	128
120	28
124	6
125	0
128	13
129	28
130	185
131	56
132	22
133	3
143	86
144	220
145	95
146	82
147	5
151	49
152	16
153	10
158	26
159	0
162	4
171	29
173	29
174	2
179	38
180	16
186	0
193	37
194	4
205	7
206	20
207	204
208	64
209	19
210	0
235	133
236	755
237	307
238	182
239	42
