Mass Spectrum: 2-(Dimethylamino)-3-methyl-1-butene
Formula: C7H15N
CAS: 7694-48-6
Molecular weight: 113
m/z	intensity
30	59
39	228
41	633
42	340
43	999
44	617
45	71
53	71
55	236
56	634
57	161
58	26
67	43
68	47
69	125
70	311
71	170
72	28
82	57
83	72
84	97
85	284
86	279
87	21
96	56
97	20
98	893
99	71
110	31
112	346
113	739
114	96
