Mass Spectrum: Cyclohexaneethanol, .beta.-methylene-
Formula: C9H16O
CAS: 7697-55-4
Molecular weight: 140
m/z	intensity
31	100
39	340
41	470
43	120
53	220
54	170
55	730
56	200
58	270
65	120
67	999
68	160
69	100
77	200
79	520
80	220
81	770
82	260
83	480
91	120
93	250
94	190
96	260
97	140
99	280
107	250
109	340
122	250
140	60
