Mass Spectrum: 18-Nonadecenoic acid
Formula: C19H36O2
CAS: 76998-87-3
Molecular weight: 296
m/z	intensity
15	1
16	1
17	15
18	76
26	4
27	61
28	34
29	172
30	5
31	6
38	1
39	80
40	14
41	629
42	124
43	548
44	18
45	44
46	1
47	1
50	2
51	5
52	3
53	51
54	143
55	999
56	373
57	499
58	26
59	33
60	186
61	37
62	2
63	2
64	1
65	10
66	16
67	251
68	241
69	923
70	403
71	248
72	14
73	232
74	19
75	2
76	1
77	11
78	9
79	45
80	47
81	262
82	352
83	909
84	515
85	165
86	12
87	74
88	9
89	3
91	21
92	9
93	42
94	69
95	219
96	402
97	871
98	595
99	93
100	63
101	111
102	16
103	4
104	4
105	16
106	9
107	44
108	58
109	146
110	262
111	443
112	222
113	64
114	146
115	88
116	24
117	6
118	6
119	35
120	16
121	63
122	46
123	151
124	170
125	243
126	107
127	108
128	37
129	85
130	14
131	5
132	3
133	43
134	59
135	67
136	36
137	124
138	143
139	144
140	68
141	38
142	14
143	38
144	9
145	3
146	2
147	33
148	53
149	51
150	29
151	107
152	123
153	100
154	46
155	29
156	11
157	27
158	9
159	3
160	1
161	29
162	21
163	32
164	20
165	82
166	69
167	62
168	29
169	25
170	9
171	24
172	9
173	3
174	1
175	23
176	12
177	21
178	20
179	60
180	63
181	43
182	21
183	23
184	9
185	18
186	8
187	2
189	16
190	8
191	11
192	20
193	49
194	98
195	41
196	18
197	18
198	8
199	12
200	13
201	3
203	9
204	5
205	8
206	7
207	46
208	52
209	22
210	9
211	11
212	6
213	13
214	9
215	4
216	1
217	6
218	7
219	7
220	5
221	46
222	50
223	18
224	9
225	8
226	5
227	7
228	5
229	4
231	4
232	3
233	1
234	75
235	62
236	130
237	33
238	6
239	6
240	4
241	4
242	1
245	1
247	2
248	1
249	41
250	38
251	8
252	3
253	11
254	5
255	2
256	1
258	1
259	1
260	40
261	9
262	2
263	6
264	3
265	1
266	1
267	4
268	5
269	2
270	1
274	1
276	2
277	1
278	514
279	117
280	15
281	2
292	1
294	4
295	1
296	26
297	9
298	5
