Mass Spectrum: Benzaldehyde-N-benzhydrylimine
Formula: C20H17N
CAS: 7699-79-8
Molecular weight: 271
m/z	intensity
41	26
42	3
43	5
44	3
45	3
49	2
50	42
51	198
52	28
53	7
54	1
55	2
57	2
60	0
61	1
62	12
63	53
64	15
65	133
66	7
69	4
70	0
71	1
73	0
74	6
75	8
76	20
77	239
78	43
79	36
80	3
82	19
83	7
86	3
87	6
88	5
89	91
90	47
91	999
92	58
93	2
94	0
95	1
96	0
97	6
98	1
99	2
101	1
102	3
103	7
104	35
105	18
106	73
107	43
108	4
113	5
114	3
115	20
116	9
117	2
119	1
120	2
121	1
122	5
126	5
127	7
128	7
133	1
134	2
135	5
139	14
140	3
141	4
150	2
151	8
152	47
153	11
154	2
162	1
163	14
164	16
165	153
166	73
167	54
168	13
177	2
178	6
179	5
180	75
181	9
182	4
190	4
191	3
192	18
193	79
194	51
195	7
239	1
241	3
242	5
243	0
252	0
253	1
254	1
256	0
267	4
268	6
269	10
270	544
271	398
272	70
273	7
