Mass Spectrum: Fenpipramide
Formula: C21H26N2O
CAS: 77-01-0
Molecular weight: 322
m/z	intensity
44	64
51	11
53	4
55	71
56	18
62	1
63	4
64	1
65	6
67	8
68	9
69	28
70	39
71	2
75	3
76	3
77	31
78	5
79	4
82	6
83	10
84	53
85	6
89	6
91	28
95	2
96	51
97	15
98	999
99	79
100	1
102	6
103	23
104	17
111	13
112	335
113	22
114	1
115	37
116	6
117	10
126	1
132	5
139	6
141	1
151	6
152	14
160	3
163	6
164	4
165	47
166	29
167	7
175	1
176	5
177	4
178	27
179	22
181	3
182	14
190	2
191	6
193	4
194	6
206	2
210	1
211	35
238	8
320	1
322	2
