Mass Spectrum: Plumericin
Formula: C15H14O6
CAS: 77-16-7
Molecular weight: 290
m/z	intensity
28	999
53	405
77	372
115	363
139	796
160	700
165	511
173	416
193	833
201	742
229	852
230	941
258	622
261	507
290	592
