Mass Spectrum: 1,3-Dibromo-5,5-dimethylhydantoin
Formula: C5H6Br2N2O2
CAS: 77-48-5
Molecular weight: 284
m/z	intensity
15	26
25	2
26	7
27	17
29	15
30	9
37	8
38	10
39	54
40	40
41	80
42	47
43	3
50	1
51	2
52	10
53	8
54	30
55	12
56	372
57	23
58	3
59	1
64	5
66	2
67	7
68	12
69	1
70	999
71	31
72	5
79	61
80	17
81	61
82	10
83	8
84	332
85	22
86	3
91	1
93	27
94	3
95	28
96	3
98	13
99	2
100	7
106	2
107	3
108	2
109	2
111	35
112	10
113	58
114	5
119	3
120	190
121	32
122	184
123	28
124	2
126	39
127	22
128	27
129	3
134	2
135	38
136	4
137	35
138	2
139	3
148	88
149	4
150	85
151	3
158	105
160	206
162	104
164	8
191	56
192	5
193	57
194	3
205	71
206	37
207	69
208	36
209	2
269	50
270	3
271	94
272	5
273	47
274	2
284	40
285	2
286	75
287	5
288	37
289	2
