Mass Spectrum: Dicyclopentadiene
Formula: C10H12
CAS: 77-73-6
Molecular weight: 132
m/z	intensity
13	0
14	0
15	5
17	0
18	2
26	13
27	60
28	11
29	1
31	1
32	0
33	0
37	9
38	34
39	181
40	80
41	26
42	0
43	0
44	0
45	0
50	31
51	64
52	22
53	15
54	10
55	0
56	0
58	3
61	5
62	16
63	38
64	21
65	165
66	999
67	94
68	3
73	0
74	6
75	6
76	7
77	43
78	33
79	13
80	0
85	0
86	1
87	1
89	10
91	42
92	4
93	0
97	0
98	1
99	0
100	0
101	1
102	6
103	11
104	9
105	3
106	0
113	0
115	30
116	12
117	33
118	3
126	1
127	5
128	11
129	6
132	133
133	14
134	0
