Mass Spectrum: Quinic acid
Formula: C7H12O6
CAS: 77-95-2
Molecular weight: 192
m/z	intensity
14	4
15	40
16	1
17	19
18	119
19	58
26	9
27	90
28	67
29	155
30	11
31	105
32	4
36	6
37	1
38	5
39	76
40	27
41	222
42	86
43	881
44	195
45	93
46	7
47	27
50	2
51	7
52	3
53	61
54	16
55	227
56	46
57	543
58	136
59	42
60	999
61	61
62	9
63	2
64	1
65	20
66	12
67	31
68	27
69	551
70	113
71	349
72	28
73	125
74	27
75	9
76	4
77	3
78	1
79	1
81	30
82	35
83	188
84	96
85	219
86	86
87	225
88	14
89	240
90	11
91	3
92	1
93	9
94	13
95	15
96	8
97	151
98	10
99	16
100	381
101	27
102	27
103	6
104	1
105	1
106	1
109	18
110	70
111	824
112	171
113	129
114	18
115	91
116	7
117	18
118	570
119	26
120	13
121	3
122	1
125	4
126	4
127	35
128	96
129	293
130	77
131	7
132	4
136	3
137	3
138	66
139	11
140	2
141	1
145	3
146	9
147	389
148	93
149	9
150	1
155	3
156	119
157	17
158	2
174	17
175	4
193	25
194	2
