Mass Spectrum: 2-Carbomethoxypyrazine 4-N-oxide
Formula: C6H6N2O3
CAS: 770-00-3
Molecular weight: 154
m/z	intensity
41	60
42	63
43	10
44	9
45	3
51	13
52	675
53	64
54	16
55	6
59	119
60	3
62	2
63	2
64	13
65	3
66	1
67	23
68	9
69	26
70	4
71	1
77	5
79	53
80	29
95	257
96	999
97	53
98	3
107	3
108	8
123	96
124	286
125	15
154	190
155	21
156	2
