Mass Spectrum: 1(2H)-Naphthalenone, octahydro-8a-methyl-, cis-
Formula: C11H18O
CAS: 770-62-7
Molecular weight: 166
m/z	intensity
41	646
42	70
43	80
46	10
47	10
48	10
50	20
51	60
52	40
53	232
54	181
55	373
56	50
57	10
63	20
65	70
66	70
67	606
68	363
69	141
70	10
71	10
77	90
78	30
79	161
80	60
81	636
82	252
83	50
84	181
85	30
91	80
92	30
93	121
94	70
95	707
96	131
97	161
98	30
105	30
106	30
107	70
108	130
109	222
110	121
111	999
112	101
119	40
120	10
121	20
122	202
123	80
124	626
125	70
133	60
134	10
135	10
137	50
138	10
148	60
149	10
151	161
152	50
153	10
166	262
167	30
