Mass Spectrum: 3,7-Dimethylenebicyclo[3.3.1]nonane
Formula: C11H16
CAS: 770-14-9
Molecular weight: 148
m/z	intensity
25	1
26	8
27	97
28	33
29	49
30	1
32	0
37	1
38	6
39	170
40	32
41	172
42	10
43	4
45	0
49	0
50	9
51	42
52	22
53	77
54	12
55	33
56	5
57	11
58	5
59	4
60	1
62	2
63	14
64	6
65	71
66	21
67	34
68	4
69	5
70	2
71	1
73	0
74	1
75	2
76	1
77	204
78	53
79	158
80	49
81	20
82	2
83	0
87	0
89	8
90	10
91	409
92	999
93	409
94	34
95	2
102	1
103	10
104	5
105	73
106	80
107	41
108	3
109	0
115	8
116	3
117	8
118	2
119	19
120	6
121	1
127	0
128	2
129	1
130	0
131	2
132	0
133	23
134	3
135	1
147	1
148	123
149	15
150	1
