Mass Spectrum: Benz[e]azulen-3(3aH)-one, 8-(acetyloxy)-5-[(acetyloxy)methyl]-4,6a,7,8,9,10,10a,10b-octahydro-3a,10a-dihydroxy-2,10-dimethyl-, [3aR-(3a.alpha.,6a.alpha.,8.beta.,10.beta.,10a.beta.,10b.beta.)]-
Formula: C21H28O7
CAS: 77012-02-3
Molecular weight: 392
m/z	intensity
12	1
13	1
14	5
15	41
16	2
17	0
18	2
19	0
24	0
25	0
26	44
27	52
28	46
29	21
30	0
31	6
32	6
36	0
37	1
38	3
39	61
40	14
41	122
42	26
43	999
44	25
45	12
46	0
47	0
49	0
50	5
51	25
52	21
53	173
54	26
55	65
56	12
57	20
58	1
59	1
60	5
61	32
62	2
63	10
64	4
65	43
66	19
67	46
68	9
69	45
70	3
71	34
72	2
73	3
74	2
75	2
76	2
77	66
78	25
79	8
80	21
81	46
82	57
83	21
84	3
85	3
86	0
87	1
88	0
89	4
90	2
91	97
92	21
93	42
94	20
95	53
96	16
97	12
98	4
99	72
100	4
101	2
102	2
103	13
104	9
105	63
106	29
107	60
108	32
109	173
110	44
111	40
112	12
113	3
114	9
115	26
116	10
117	21
118	8
119	24
120	14
121	26
122	12
123	12
124	17
125	9
126	1
127	7
128	20
129	22
130	10
131	22
132	12
133	26
134	20
135	24
136	9
137	21
138	28
139	10
140	2
141	10
142	8
143	16
144	9
145	44
146	18
147	32
148	16
149	14
150	8
151	14
152	6
153	5
154	2
155	9
156	8
157	15
158	29
159	42
160	21
161	26
162	26
163	26
164	10
165	18
166	10
167	5
168	5
169	6
170	4
171	17
172	12
173	29
174	20
175	22
176	16
177	10
178	5
179	5
180	4
181	37
182	8
183	12
184	12
185	20
186	10
187	11
188	6
189	9
190	6
191	16
192	5
193	5
194	1
195	4
196	2
197	10
198	14
199	21
200	5
201	14
202	12
203	10
204	6
205	2
206	1
207	2
208	2
209	10
210	4
211	17
212	10
213	6
214	3
215	8
216	13
217	6
218	1
219	2
220	1
221	10
222	3
223	3
224	1
225	9
226	16
227	10
228	3
229	9
230	4
231	3
232	0
233	1
234	0
235	1
236	12
237	4
238	2
239	9
240	1
241	3
242	2
243	6
244	18
245	4
246	12
247	0
248	0
249	0
251	1
252	0
253	3
254	40
255	10
256	4
257	5
258	1
259	1
260	0
261	1
262	1
263	0
264	0
265	0
266	0
270	0
271	3
272	106
273	24
274	4
275	1
276	0
279	0
281	0
283	0
284	0
285	0
286	0
287	3
288	2
289	1
290	16
291	3
292	0
296	0
298	1
299	0
301	0
302	0
304	1
305	0
314	10
315	2
316	1
317	0
318	0
332	32
333	5
334	1
344	0
345	0
350	0
374	0
376	0
392	1
