Mass Spectrum: N-Benzoyl derivative of p-bromoaniline
Formula: C13H10BrNO
CAS: 7702-38-7
Molecular weight: 275
m/z	intensity
37	15
38	25
39	32
50	75
51	164
52	25
61	15
62	25
63	63
64	42
65	25
74	25
75	25
76	32
77	481
78	42
90	25
91	63
92	15
104	15
105	999
106	83
107	15
117	15
119	15
143	25
145	25
167	15
170	15
172	15
195	15
275	123
276	25
277	113
278	25
