Mass Spectrum: (3R,6R)-3-Hydroperoxy-3-methyl-6-(prop-1-en-2-yl)cyclohex-1-ene
Formula: C10H16O2
CAS: 77026-88-1
Molecular weight: 168
m/z	intensity
39	65
40	16
41	118
42	12
43	253
44	8
45	9
46	1
50	21
51	63
52	35
53	91
54	14
55	192
56	12
57	23
58	20
59	9
60	3
61	3
62	10
63	33
64	11
65	107
66	39
67	138
68	36
69	92
70	9
71	24
74	6
75	5
76	4
77	363
78	76
79	630
80	137
81	147
82	24
83	14
84	28
85	3
87	2
89	9
90	3
91	524
92	76
93	999
94	174
95	108
96	16
97	15
98	4
102	5
103	26
104	12
105	174
106	38
107	844
108	114
109	186
110	25
114	1
115	21
116	6
117	31
118	6
119	141
120	34
121	35
122	22
123	41
124	14
125	3
131	3
133	15
134	195
135	897
136	138
137	113
138	11
151	3
152	7
153	5
