Mass Spectrum: Pregnan-20-one, (5.alpha.,17.alpha.)-
Formula: C21H34O
CAS: 7704-90-7
Molecular weight: 302
m/z	intensity
40	62
41	606
42	175
43	999
44	512
45	250
46	12
47	6
48	62
50	6
51	18
52	12
53	187
54	56
55	618
56	43
57	81
58	18
59	6
60	18
61	6
63	6
64	12
65	62
66	31
67	481
68	118
69	175
70	25
71	450
72	25
73	25
74	6
77	143
78	37
79	312
80	81
81	393
82	56
83	137
84	168
85	87
86	12
87	6
91	200
92	43
93	212
94	81
95	331
96	50
97	62
98	12
99	12
103	6
104	6
105	118
106	43
107	168
108	87
109	293
110	37
111	25
112	6
115	12
116	6
117	25
118	12
119	75
120	37
121	193
122	156
123	137
124	18
125	6
127	6
128	6
129	12
130	6
131	18
132	12
133	56
135	212
136	43
137	18
138	6
139	6
143	6
145	25
146	6
147	81
148	43
149	131
150	18
151	18
152	6
153	6
155	6
157	6
159	25
160	12
161	50
162	50
163	37
164	6
165	6
169	6
171	6
173	12
174	6
175	62
176	18
177	6
178	6
179	6
183	6
185	6
187	12
188	6
189	18
190	12
191	12
192	81
193	18
194	6
195	6
199	6
201	6
202	6
203	12
204	6
205	6
206	6
213	12
214	6
215	31
216	12
217	412
218	87
219	12
227	6
228	6
229	12
230	6
231	31
232	43
233	6
241	6
242	6
243	6
244	56
245	18
246	6
256	6
257	6
259	6
269	25
270	6
284	31
285	12
287	156
288	37
289	6
302	281
303	68
304	6
