Mass Spectrum: Benz[e]azulen-3(3aH)-one, 8-(acetyloxy)-5-[(acetyloxy)methyl]-4,6a,7,8,9,10,10a,10b-octahydro-3a,10a-dihydroxy-2,10-dimethyl-, [3aR-(3a.alpha.,6a.alpha.,8.alpha.,10.beta.,10a.beta.,10b.beta.)]-
Formula: C21H28O7
CAS: 77058-93-6
Molecular weight: 392
m/z	intensity
12	0
13	0
15	31
16	2
17	3
18	9
24	0
25	1
26	5
27	61
28	17
29	38
30	2
31	9
36	2
37	1
38	3
39	92
40	20
41	238
42	34
43	999
44	80
45	34
46	1
47	1
48	0
49	0
50	5
51	34
52	30
53	301
54	52
55	158
56	19
57	47
58	5
59	2
60	34
61	36
62	3
63	12
64	5
65	92
66	49
67	115
68	23
69	174
70	17
71	109
72	9
73	12
74	6
75	4
76	4
77	174
78	58
79	238
80	61
81	142
82	206
83	77
84	15
85	15
86	3
87	7
88	3
89	11
90	6
91	285
92	84
93	155
94	76
95	174
96	55
97	95
98	22
99	301
100	21
101	15
102	9
103	39
104	34
105	238
106	134
107	285
108	182
109	785
110	222
111	206
112	65
113	17
114	5
115	79
116	38
117	84
118	34
119	111
120	66
121	134
122	68
123	69
124	96
125	53
126	12
127	30
128	74
129	102
130	53
131	107
132	68
133	147
134	139
135	145
136	60
137	114
138	130
139	53
140	12
141	53
142	42
143	106
144	58
145	269
146	126
147	222
148	125
149	112
150	61
151	93
152	47
153	31
154	19
155	58
156	50
157	88
158	190
159	301
160	174
161	253
162	269
163	246
164	98
165	146
166	85
167	49
168	39
169	50
170	36
171	114
172	82
173	222
174	132
175	206
176	174
177	101
178	60
179	52
180	41
181	269
182	50
183	104
184	111
185	174
186	108
187	90
188	61
189	77
190	53
191	158
192	63
193	53
194	19
195	31
196	26
197	91
198	117
199	174
200	58
201	114
202	112
203	100
204	65
205	28
206	15
207	28
208	24
209	92
210	39
211	174
212	104
213	79
214	38
215	77
216	133
217	69
218	20
219	25
220	15
221	80
222	31
223	31
224	12
225	87
226	166
227	98
228	31
229	92
230	46
231	50
232	14
233	12
234	3
235	15
236	163
237	65
238	17
239	119
240	23
241	47
242	25
243	69
244	206
245	49
246	22
247	6
248	3
249	2
250	1
251	14
252	4
253	47
254	714
255	174
256	47
257	61
258	15
259	17
260	6
261	9
262	14
263	3
264	4
265	1
266	0
267	0
268	1
269	1
270	7
271	42
272	984
273	365
274	69
275	15
276	3
277	1
278	0
279	3
280	1
281	1
282	0
283	0
284	1
285	2
286	5
287	26
288	15
289	25
290	198
291	33
292	5
293	0
294	0
295	0
296	9
297	2
298	1
299	2
300	1
301	1
302	1
303	4
304	28
305	5
306	2
307	0
308	0
309	0
310	0
311	0
312	0
313	2
314	107
315	25
316	7
317	2
318	1
319	2
320	1
321	0
322	0
326	0
327	0
328	1
329	0
330	2
331	1
332	674
333	142
334	25
335	3
336	0
338	0
339	0
342	0
346	0
347	0
348	2
349	0
350	2
351	0
352	0
354	0
356	0
357	0
358	0
364	0
366	0
367	0
368	0
369	0
370	0
371	0
372	0
374	6
375	1
376	0
389	1
390	0
391	28
392	6
393	1
