Mass Spectrum: 4,5-Dihydro-4,4-hexamethylene-2-phenyl-1,3-oxazin-6-one
Formula: C16H19NO2
CAS: 77064-48-3
Molecular weight: 257
m/z	intensity
41	71
51	70
77	470
78	31
104	31
105	999
106	95
122	143
136	71
186	93
200	92
201	101
202	15
229	313
230	57
257	30
