Mass Spectrum: 4,5-Dihydro-5,5-dimethyl-4,4-pentamethylene-2-phenyl-1,3-oxazin-6-one
Formula: C17H21NO2
CAS: 77064-50-7
Molecular weight: 271
m/z	intensity
41	270
42	203
43	12
51	62
55	59
70	702
71	35
77	599
78	28
81	101
82	9
105	999
106	95
168	172
169	20
202	433
203	75
271	9
