Mass Spectrum: 1,2-Cyclohexanediamine, N,N'-diformyl-, cis-
Formula: C8H14N2O2
CAS: 77069-67-1
Molecular weight: 170
m/z	intensity
26	7
27	52
28	221
29	169
30	152
31	7
38	5
39	63
40	12
41	126
42	138
43	189
44	46
45	9
46	31
50	4
51	10
52	10
53	22
54	45
55	21
56	412
57	36
58	35
59	32
60	8
65	5
66	4
67	23
68	29
69	58
70	43
71	51
72	29
73	40
74	3
77	11
78	4
79	27
80	126
81	61
82	26
83	8
84	147
85	22
86	14
87	9
94	35
95	9
96	117
97	139
98	120
99	20
100	5
106	2
107	22
108	4
109	2
110	7
111	2
112	18
113	7
114	1
123	5
124	23
125	999
126	42
127	3
141	7
142	2
152	9
153	2
170	18
171	3
