Mass Spectrum: 1-Benzoyl-6-methyl-1-azaspiro[3,5]nonan-2-one
Formula: C16H19NO2
CAS: 77064-44-9
Molecular weight: 257
m/z	intensity
51	52
75	20
77	375
78	21
105	999
106	101
108	101
122	173
123	18
136	92
137	10
201	59
202	9
214	145
215	72
216	10
229	183
230	27
257	179
258	29
