Mass Spectrum: 1-Benzoyl-5-methyl-1-azaspiro[3,5]nonan-2-one
Formula: C16H19NO2
CAS: 77064-43-8
Molecular weight: 257
m/z	intensity
41	119
42	240
43	5
51	131
52	9
70	331
71	42
77	929
78	63
105	999
106	98
107	12
242	41
243	10
256	53
257	212
258	37
