Mass Spectrum: 4,5-Dihydro-5-methyl-4,4-pentamethylene-2-phenyl-1,3-oxazin-6-one
Formula: C16H19NO2
CAS: 77064-49-4
Molecular weight: 257
m/z	intensity
40	383
41	50
51	50
55	312
56	521
57	28
77	780
78	51
103	53
105	999
106	92
202	29
229	20
257	31
