Mass Spectrum: 4-Ethyl-4,5-dihydro-4-methyl-2-phenyl-1,3-oxazin-6-one
Formula: C13H15NO2
CAS: 77064-47-2
Molecular weight: 217
m/z	intensity
41	49
42	82
51	129
55	111
70	111
76	43
77	431
78	32
104	52
105	999
106	95
188	462
189	47
217	20
