Mass Spectrum: 1-Benzoyl-6,6,8,8-tetramethyl-1-azaspiro[3.5]nonan-2-one
Formula: C19H25NO2
CAS: 77064-45-0
Molecular weight: 299
m/z	intensity
51	53
77	331
78	25
105	999
106	115
132	151
133	15
135	199
136	203
137	529
138	60
164	501
165	40
178	180
179	22
243	199
244	35
284	192
285	27
299	331
300	68
301	12
