Mass Spectrum: 1-Benzoyl-3,3,4-trimethyl-4-phenylazetidin-2-one
Formula: C19H19NO2
CAS: 77064-42-7
Molecular weight: 293
m/z	intensity
42	31
51	19
70	193
71	9
77	222
78	18
103	31
104	20
105	999
106	108
107	12
131	21
190	81
191	14
224	700
225	203
226	35
293	332
294	66
295	11
