Mass Spectrum: 4,5-Dihydro-4,4-diisopropyl-2-phenyl-1,3-oxazin-6-one
Formula: C16H21NO2
CAS: 77074-13-6
Molecular weight: 259
m/z	intensity
43	49
51	81
52	20
56	52
77	399
78	18
105	999
106	88
138	69
188	60
189	51
216	320
217	53
231	51
232	11
259	11
