Mass Spectrum: 4,5-Dihydro-2,4,4-triphenyl-1,3-oxazin-6-one
Formula: C22H17NO2
CAS: 77074-12-5
Molecular weight: 327
m/z	intensity
42	100
51	201
52	15
77	692
78	50
103	121
104	19
105	999
106	95
178	80
179	72
180	250
181	20
194	49
195	7
285	3
286	3
299	50
300	11
327	31
328	9
