Mass Spectrum: N-Acetyl-S-2-hydroxyethyl-l-cysteine methyl ester
Formula: C8H15NO4S
CAS: 77109-48-9
Molecular weight: 221
m/z	intensity
43	999
45	280
61	370
74	130
85	120
88	320
91	160
103	110
117	120
120	50
132	90
144	720
162	120
171	40
203	190
