Mass Spectrum: Methyl 1-adamantyl ketone thiosemicarbazone
Formula: C13H21N3S
CAS: 77117-71-6
Molecular weight: 251
m/z	intensity
41	189
42	88
43	303
44	100
45	43
49	12
50	4
51	24
52	14
53	76
54	15
55	65
56	18
57	12
58	475
59	42
60	358
61	7
63	5
64	0
65	28
66	18
67	68
68	14
69	23
70	21
71	6
72	52
73	129
74	8
76	1
77	134
78	45
79	217
80	49
81	44
82	10
83	8
84	12
85	9
86	7
87	0
88	1
89	5
91	140
92	85
93	86
94	23
95	21
96	31
97	24
98	47
99	999
100	27
101	0
102	1
103	9
104	8
105	80
106	41
107	37
108	16
109	12
110	11
111	5
112	4
113	5
114	12
115	9
116	5
117	15
118	16
119	36
120	24
121	12
122	11
123	21
124	8
125	7
126	1
127	8
128	1
129	2
130	2
131	7
132	22
133	27
134	56
135	112
136	16
137	3
138	12
139	14
140	2
141	2
143	3
144	1
145	1
146	4
147	5
148	4
149	11
150	75
151	20
152	5
153	3
158	1
159	3
160	20
161	6
162	4
163	3
164	1
165	4
174	19
175	22
176	209
177	47
178	11
179	11
180	1
181	0
189	3
190	1
191	13
192	13
193	16
194	3
202	3
203	42
204	7
205	1
216	4
217	4
218	36
219	31
220	5
232	5
233	18
234	615
235	102
236	9
251	4
