Mass Spectrum: Cyclopentene, 1-isopropyl-4,5-dimethyl-
Formula: C10H18
CAS: 7712-74-5
Molecular weight: 138
m/z	intensity
26	13
27	169
28	50
29	93
30	2
36	0
37	1
38	5
39	165
40	25
41	288
42	22
43	129
45	1
46	0
47	1
49	0
50	11
51	44
52	22
53	103
54	17
55	180
56	14
57	50
58	4
59	3
60	1
62	3
63	12
64	2
65	45
66	16
67	262
68	31
69	191
70	38
71	1
74	2
75	3
76	1
77	79
78	16
79	92
80	16
81	433
82	88
83	39
84	2
86	0
87	0
88	0
89	3
90	1
91	64
92	8
93	51
94	46
95	999
96	102
97	6
98	0
102	1
103	3
104	1
105	14
106	3
107	23
108	12
109	29
110	4
111	0
114	0
115	1
117	1
119	1
121	12
122	2
123	484
124	48
125	1
126	0
136	0
137	6
138	178
139	21
140	0
