Mass Spectrum: 8-Hydroxycarvotanacetone
Formula: C10H16O2
CAS: 7712-46-1
Molecular weight: 168
m/z	intensity
51	20
52	10
53	70
54	60
55	50
57	20
58	30
59	999
60	40
65	20
66	30
67	70
68	20
69	30
71	20
77	40
79	60
80	10
81	60
82	80
83	10
85	10
91	40
92	10
93	20
94	20
95	330
96	20
107	40
108	50
109	180
110	400
111	40
135	20
150	70
151	10
153	20
