Mass Spectrum: 2-Methyl-5-chloropentanol-2
Formula: C6H13ClO
CAS: 7712-59-6
Molecular weight: 136
m/z	intensity
27	17
29	35
31	104
36	59
41	164
42	48
43	636
44	19
45	20
55	76
56	91
58	34
59	999
60	39
67	28
69	104
70	24
76	24
77	68
79	24
83	35
85	154
86	10
103	10
118	22
119	25
120	9
121	206
122	14
123	71
