Mass Spectrum: (1S,3S,4S,5R)-1-Isopropyl-4-methylbicyclo[3.1.0]hexan-3-ol
Formula: C10H18O
CAS: 7712-79-0
Molecular weight: 154
m/z	intensity
27	75
29	99
30	5
31	22
38	9
39	219
40	35
41	463
42	54
43	740
44	33
45	38
46	2
50	15
51	63
52	32
53	187
54	50
55	609
56	83
57	133
58	140
59	28
61	7
62	8
63	20
64	6
65	97
66	46
67	441
68	114
69	345
70	281
71	180
72	22
76	2
77	219
78	38
79	519
80	88
81	559
82	88
83	166
84	85
85	25
90	3
91	189
92	271
93	999
94	207
95	812
96	157
97	110
98	23
99	26
103	8
105	74
106	22
107	304
108	52
109	80
110	322
111	149
112	28
113	3
121	784
122	79
123	25
124	8
125	10
135	9
136	261
137	52
139	18
140	4
