Mass Spectrum: 2,3-Dimethyl-isoxazol-5(2H)-one
Formula: C5H7NO2
CAS: 7713-67-9
Molecular weight: 113
m/z	intensity
37	51
38	80
39	306
40	237
41	101
42	111
43	181
44	79
45	217
51	9
52	30
53	9
54	39
55	61
56	188
57	9
58	20
66	9
67	500
68	151
69	30
70	9
72	29
73	9
85	81
96	60
98	10
112	20
113	999
114	70
