Mass Spectrum: 1-Propanone, 1-(3-acetyl-2,2-dimethylcyclopropyl)-2-methyl-
Formula: C11H18O2
CAS: 77142-84-8
Molecular weight: 182
m/z	intensity
26	5
27	109
28	15
29	33
31	2
38	5
39	104
40	26
41	241
42	30
43	999
44	27
45	9
50	5
51	16
52	9
53	61
54	9
55	102
56	9
57	15
58	4
59	12
63	4
65	16
66	6
67	68
68	16
69	125
70	20
71	128
72	14
73	2
77	21
78	4
79	25
80	3
81	41
82	6
83	65
84	7
85	15
91	16
92	3
93	38
94	7
95	41
96	24
97	242
98	17
99	6
105	7
106	2
107	17
108	3
109	24
110	6
111	571
112	265
113	24
114	2
119	2
121	33
122	4
123	12
124	11
125	43
126	4
135	2
137	2
139	205
140	106
141	15
149	7
151	3
155	4
164	5
165	3
168	4
182	8
183	1
