Mass Spectrum: 4-(1,3,3-Trimethyl-bicyclo[4.1.0]hept-2-yl)-but-3-en-2-one
Formula: C14H22O
CAS: 77143-31-8
Molecular weight: 206
m/z	intensity
27	78
29	93
38	8
39	137
40	26
41	327
42	27
43	668
44	23
45	30
50	9
51	41
52	22
53	110
54	19
55	173
56	27
57	39
58	15
59	9
63	16
64	10
65	72
66	24
67	142
68	52
69	138
70	15
71	62
72	8
75	9
76	7
77	165
78	36
79	207
80	75
81	244
82	79
83	40
84	48
85	18
89	10
90	7
91	236
92	92
93	283
94	55
95	218
96	48
97	33
98	6
99	9
103	20
104	12
105	131
106	58
107	494
108	77
109	999
110	92
111	47
112	18
113	10
115	25
116	11
117	42
118	9
119	57
120	22
121	188
122	72
123	342
124	55
125	40
126	9
128	10
129	12
130	8
131	32
132	15
133	81
134	22
135	180
136	159
137	186
139	7
141	11
143	6
145	23
146	14
147	33
148	199
149	225
150	104
151	40
152	11
154	7
159	11
160	7
161	14
162	10
163	224
164	36
165	8
167	8
173	36
174	9
177	19
178	8
188	10
191	101
192	22
205	7
206	78
207	17
