Mass Spectrum: 1-(6-Chloropyridin-2-yl)piperidin-4-amine
Formula: C10H14ClN3
CAS: 77145-51-8
Molecular weight: 211
m/z	intensity
15	13
16	1
17	2
18	9
26	16
27	93
28	250
29	76
30	139
31	2
33	1
34	1
35	2
36	4
37	12
38	30
39	96
40	39
41	111
42	242
43	201
44	87
45	3
47	3
48	1
49	12
50	52
51	133
52	101
53	57
54	106
55	110
56	625
57	106
58	12
59	2
60	10
61	12
62	24
63	24
64	57
65	71
66	66
67	86
68	28
69	21
70	115
71	37
72	6
73	11
75	22
76	235
77	59
78	368
79	51
80	45
81	21
82	342
83	82
84	100
85	54
86	20
87	21
88	8
89	5
90	17
91	42
92	100
93	93
94	9
95	5
97	5
98	2
99	16
100	16
101	30
102	14
103	29
104	28
105	138
106	19
107	17
108	2
110	2
111	3
112	421
113	999
114	239
115	327
116	39
117	25
118	26
119	47
120	12
121	4
122	4
125	2
126	17
127	76
128	277
129	89
130	96
131	64
132	26
133	14
134	2
135	1
138	7
139	78
140	121
141	519
142	242
143	187
144	71
145	9
146	8
147	4
148	12
149	2
150	1
151	61
152	59
153	400
154	66
155	456
156	66
157	115
158	26
159	51
160	7
164	10
165	156
166	110
167	461
168	128
169	140
170	29
171	4
174	2
175	1
176	18
177	92
178	100
179	393
180	73
181	132
182	52
183	11
184	16
185	2
191	7
192	4
193	340
194	954
195	212
196	303
197	36
198	4
208	2
209	2
211	370
212	44
213	116
214	13
215	1
