Mass Spectrum: Sulfoxide, methyl phenethyl
Formula: C9H12OS
CAS: 7714-32-1
Molecular weight: 168
m/z	intensity
65	120
66	20
77	40
78	40
91	999
103	88
104	88
105	40
