Mass Spectrum: 1-(3-Isopropenyl-2,2-dimethylcyclopropyl)-2-methylpropan-1-one
Formula: C12H20O
CAS: 77142-94-0
Molecular weight: 180
m/z	intensity
26	3
27	103
28	29
29	41
38	5
39	126
40	28
41	272
42	24
43	999
44	42
50	6
51	26
52	13
53	77
54	9
55	143
56	12
57	11
63	8
64	2
65	35
66	15
67	324
68	18
69	50
70	9
71	585
72	26
73	3
75	2
77	67
78	14
79	86
80	13
81	138
82	11
83	9
91	50
92	6
93	42
94	46
95	52
96	10
97	7
105	10
106	2
107	41
108	21
109	962
110	154
111	11
115	3
119	3
121	4
122	2
123	6
135	4
137	36
138	4
139	4
151	3
152	2
165	18
180	154
181	24
