Mass Spectrum: 3-Isopropyl-5-methyl-hex-4-en-2-one
Formula: C10H18O
CAS: 77142-85-9
Molecular weight: 154
m/z	intensity
26	3
27	77
28	8
29	53
38	4
39	102
40	18
41	310
42	21
43	350
44	10
45	4
50	5
51	23
52	9
53	69
54	11
55	337
56	20
57	52
58	6
59	3
63	6
65	20
66	6
67	66
68	13
69	999
70	55
71	14
74	2
77	29
78	7
79	29
80	6
81	44
82	3
83	61
84	5
85	6
86	1
87	1
91	12
93	14
94	3
95	44
96	19
97	68
98	5
99	1
105	2
109	8
110	14
111	827
112	119
113	7
121	5
123	3
139	15
140	0
154	7
155	4
