Mass Spectrum: 2,4-Hexanedione, 5-methyl-3-(2-methyl-1-propenyl)-
Formula: C11H18O2
CAS: 77142-83-7
Molecular weight: 182
m/z	intensity
26	5
27	124
28	16
29	41
31	5
38	6
39	128
40	30
41	298
42	33
43	999
44	30
45	12
50	8
51	38
52	15
53	94
54	14
55	168
56	14
57	18
58	8
59	7
60	0
61	1
62	4
63	9
64	3
65	39
66	16
67	92
68	24
69	144
70	25
71	106
72	13
73	1
74	0
75	2
76	1
77	84
78	15
79	67
80	8
81	59
82	7
83	60
84	7
85	9
86	1
87	1
89	2
90	1
91	65
92	9
93	123
94	24
95	47
96	43
97	341
98	26
99	2
101	1
103	4
104	2
105	23
106	7
107	47
108	7
109	19
110	6
111	268
112	460
113	35
114	2
115	1
116	0
119	4
120	4
121	322
122	37
123	13
124	3
125	52
126	5
127	1
128	0
129	0
130	0
131	1
132	0
133	1
134	1
135	4
136	2
137	4
138	2
139	650
140	127
141	13
142	1
148	1
149	43
150	5
151	2
153	1
154	1
155	1
163	1
164	77
165	9
166	1
167	42
168	5
169	1
181	1
182	300
183	45
184	4
185	0
186	0
