Mass Spectrum: 2-Cyclohexene-1-methanamine, N,N,2-trimethyl-5-(1-methylethenyl)-
Formula: C13H23N
CAS: 77141-72-1
Molecular weight: 193
m/z	intensity
26	9
27	40
28	118
29	13
30	46
31	18
33	0
38	1
39	32
40	7
41	54
42	62
43	25
44	27
45	9
46	4
50	2
51	10
52	4
53	17
54	2
55	11
56	7
57	13
58	999
59	68
60	3
62	0
63	4
64	1
65	13
66	3
67	6
68	2
69	1
70	1
71	1
72	0
73	0
74	0
75	0
76	0
77	23
78	6
79	14
80	3
81	3
82	2
83	0
84	1
89	1
90	0
91	34
92	6
93	8
94	3
95	1
96	2
98	0
102	1
103	4
104	2
105	22
106	3
107	4
108	3
109	1
110	0
111	0
115	5
116	2
117	6
118	2
119	21
120	3
121	1
122	4
123	0
124	1
125	0
127	0
128	0
129	0
130	0
131	2
132	2
133	4
134	3
135	2
136	0
137	0
144	0
145	0
146	2
147	1
148	3
149	2
150	1
151	0
153	0
155	0
160	0
161	0
162	0
165	0
175	0
176	1
177	1
178	0
179	1
183	0
190	0
191	2
192	0
193	57
194	8
195	1
197	0
