Mass Spectrum: Spiro[2.5]octane, 5,5-dimethyl-4-(3-oxobutyl)-
Formula: C14H24O
CAS: 77143-32-9
Molecular weight: 208
m/z	intensity
26	2
27	73
29	109
30	4
31	2
37	0
38	2
39	132
40	32
41	497
42	29
43	999
44	31
45	16
50	8
51	29
52	18
53	131
54	38
55	291
56	42
57	72
58	34
59	14
60	1
61	0
62	1
63	7
64	3
65	70
66	33
67	311
68	76
69	479
70	48
71	231
72	14
73	3
74	3
75	3
76	7
77	140
78	39
79	406
80	86
81	515
82	230
83	92
84	24
85	25
86	3
87	2
88	0
89	3
90	1
91	171
92	36
93	394
94	156
95	500
96	87
97	54
98	16
99	8
100	1
101	1
102	1
103	9
104	9
105	147
106	52
107	543
108	131
109	470
110	66
111	50
112	12
113	7
114	1
115	9
116	2
117	10
118	3
119	120
120	60
121	320
122	379
123	356
124	52
125	35
126	21
127	6
128	7
129	3
130	1
131	7
132	3
133	66
134	55
135	723
136	94
137	254
138	147
139	77
140	9
141	7
142	1
143	1
144	1
145	5
146	4
147	183
148	34
149	121
150	655
151	91
152	45
153	10
154	1
155	2
156	0
157	0
158	0
159	3
160	1
161	61
162	26
163	20
164	6
165	109
166	16
167	4
168	1
169	0
170	0
171	1
172	0
173	2
174	0
175	277
176	44
177	28
178	9
179	97
180	55
181	7
182	0
183	1
184	0
185	0
186	1
187	0
188	0
189	1
190	75
191	21
192	3
193	383
194	53
195	4
196	0
207	4
208	28
209	4
210	1
