Mass Spectrum: Pentanal, 3-(acetyloxy)-2,2,4-trimethyl-
Formula: C10H18O3
CAS: 77142-76-8
Molecular weight: 186
m/z	intensity
26	5
27	107
28	13
29	80
30	3
31	13
36	2
38	4
39	86
40	13
41	162
42	30
43	999
44	54
45	27
50	3
51	7
52	3
53	25
54	11
55	199
56	30
57	129
58	8
59	16
60	3
61	9
63	2
65	7
66	3
67	21
68	4
69	32
70	24
71	96
72	593
73	75
74	6
76	2
77	6
78	1
79	7
80	2
81	11
82	7
83	475
84	43
85	23
86	10
87	14
88	4
90	1
91	3
93	5
95	2
96	2
97	66
98	193
99	28
101	29
102	3
104	2
105	1
107	1
108	1
109	5
110	2
111	17
112	3
113	2
114	193
115	142
116	12
117	3
120	1
121	1
122	1
125	2
126	9
127	5
129	4
130	1
141	2
144	63
145	1
157	2
160	1
180	1
186	1
