Mass Spectrum: 3-Chloro-2-nitrobenzyl alcohol
Formula: C7H6ClNO3
CAS: 77158-86-2
Molecular weight: 187
m/z	intensity
15	2
16	2
17	4
18	8
19	2
25	2
26	13
27	46
28	37
29	111
30	172
31	100
32	1
35	7
36	13
37	50
38	75
39	185
40	13
41	11
42	6
43	11
44	12
45	21
46	35
47	62
48	6
49	47
50	285
51	772
52	142
53	57
54	8
55	22
56	2
60	15
61	79
62	154
63	334
64	67
65	256
66	37
67	6
68	7
69	2
70	2
71	3
72	22
73	142
74	265
75	824
76	209
77	999
78	903
79	83
80	8
81	5
82	1
84	76
85	99
86	111
87	90
88	42
89	250
90	969
91	116
92	28
93	44
94	86
95	9
96	7
97	28
98	152
99	169
100	72
101	57
102	11
103	39
104	21
105	70
106	88
107	20
108	12
109	22
110	122
111	630
112	210
113	636
114	121
115	160
116	23
117	11
118	26
119	7
120	2
121	6
122	1
123	22
124	80
125	713
126	135
127	286
128	53
129	20
130	6
131	1
134	7
135	1
137	1
138	71
139	345
140	86
141	167
142	38
143	22
144	6
145	1
151	4
152	4
153	37
154	38
155	73
156	19
157	21
158	10
159	1
160	2
168	4
169	34
170	6
171	13
172	2
184	1
186	3
187	6
188	1
189	3
