Mass Spectrum: Piperidin-4-one, 1-[1-phenylcyclohexyl]-
Formula: C17H23NO
CAS: 77179-42-1
Molecular weight: 257
m/z	intensity
42	395
43	71
44	20
45	6
47	23
48	10
49	103
50	20
51	99
52	19
53	68
54	52
55	247
56	113
57	75
58	7
59	6
60	3
61	1
62	3
63	19
64	8
65	62
66	13
67	76
68	24
69	18
70	26
71	17
72	7
73	4
74	6
75	7
76	20
77	155
78	53
79	67
80	20
81	184
82	21
83	23
84	93
85	2
86	55
87	3
88	12
89	20
90	24
91	999
92	78
93	6
94	4
95	4
96	6
97	8
98	41
99	15
100	10
101	4
102	25
103	111
104	92
105	41
106	17
107	7
108	13
109	4
110	29
111	4
112	3
113	2
114	1
115	126
116	37
117	208
118	44
119	7
120	3
121	2
122	1
123	2
124	5
125	1
126	2
127	15
128	37
129	58
130	88
131	20
132	16
133	2
134	3
135	2
136	2
138	3
139	2
140	0
141	8
142	7
143	33
144	38
145	20
146	8
147	2
149	4
150	1
151	1
152	3
153	3
154	2
155	3
156	7
157	10
158	90
159	173
160	27
161	3
164	0
165	2
166	0
167	1
168	0
170	5
171	1
172	78
173	14
174	3
175	1
176	2
177	1
178	2
179	1
180	118
181	13
182	1
184	2
185	1
186	18
187	3
188	6
189	0
190	1
198	0
200	70
201	18
202	3
203	1
212	3
214	659
215	99
216	9
228	18
229	3
255	0
256	143
257	331
258	63
259	6
