Mass Spectrum: Cyclohexanol, 2-(2-ethylhexyl)-
Formula: C14H28O
CAS: 77189-05-0
Molecular weight: 212
m/z	intensity
26	3
27	197
29	504
30	15
31	67
39	120
40	17
41	857
42	102
43	527
44	57
45	40
46	0
50	0
51	6
52	5
53	92
54	95
55	792
56	245
57	999
58	47
59	60
60	2
63	3
65	22
66	33
67	520
68	151
69	541
70	807
71	487
72	30
73	11
74	0
77	26
78	5
79	87
80	60
81	710
82	400
83	371
84	145
85	65
86	8
87	9
88	8
91	16
92	2
93	26
94	44
95	708
96	397
97	288
98	238
99	36
100	4
101	2
102	2
103	26
104	0
105	3
106	0
107	14
108	8
109	249
110	46
111	39
112	612
113	600
114	56
115	6
116	1
121	11
122	7
123	90
124	29
125	17
126	13
127	9
128	5
129	15
135	8
136	29
137	503
138	76
139	8
140	5
141	4
142	0
144	0
145	5
149	3
150	2
151	16
152	66
153	7
155	8
156	1
157	1
163	2
164	34
165	417
166	57
167	3
168	0
169	0
180	0
183	7
184	0
193	4
194	463
195	76
196	5
211	1
212	6
213	0
