Mass Spectrum: Silane, dichloroethenylphenyl-
Formula: C8H8Cl2Si
CAS: 7719-02-0
Molecular weight: 202
m/z	intensity
28	18
29	9
39	9
51	70
52	11
63	90
65	30
76	19
77	150
78	61
97	30
101	10
102	19
103	31
104	999
105	103
125	32
127	11
139	11
140	9
141	21
165	12
166	40
167	18
175	171
176	30
177	151
178	20
179	29
201	22
202	122
203	20
204	72
205	9
206	20
