Mass Spectrum: Benzenepropanoic acid, .beta.-methyl-, (S)-
Formula: C10H12O2
CAS: 772-15-6
Molecular weight: 164
m/z	intensity
26	4
27	49
29	9
30	1
31	3
36	0
37	1
38	4
39	58
40	16
41	54
42	3
43	22
44	1
45	15
46	0
49	0
50	22
51	77
52	17
53	10
54	0
55	2
56	1
57	14
58	4
59	2
60	4
61	0
62	5
63	18
64	3
65	22
66	2
67	0
68	0
69	2
70	0
71	0
72	1
73	2
74	6
75	6
76	9
77	139
78	56
79	149
80	9
81	0
83	0
85	0
86	1
87	2
88	0
89	9
90	1
91	57
92	5
93	1
94	0
95	0
97	0
98	0
100	1
101	1
102	11
103	79
104	53
105	999
106	74
107	91
108	6
109	0
115	17
116	3
117	22
118	141
119	18
120	1
121	4
122	0
127	0
129	0
131	10
132	1
133	0
135	0
136	0
140	0
145	1
146	2
147	3
148	0
149	5
150	0
164	164
165	17
166	1
