Mass Spectrum: 1H-Imidazol-2-amine
Formula: C3H5N3
CAS: 7720-39-0
Molecular weight: 83
m/z	intensity
41	46
42	28
43	73
44	9
45	6
52	3
53	34
54	22
55	118
56	176
57	7
58	3
60	2
66	2
78	2
81	3
82	13
83	999
84	55
