Mass Spectrum: Cyclopropane, (R,R)-1-((Z)-hex-1'-enyl)-2-ethenyl-
Formula: C11H18
CAS: 77210-40-3
Molecular weight: 150
m/z	intensity
27	440
29	360
39	540
41	740
55	350
66	450
67	540
77	440
78	380
79	999
80	580
91	430
93	460
94	210
107	160
109	100
121	70
135	10
150	130
