Mass Spectrum: Cyclopropane, (R,R)-1-((Z),(Z)-hexa-1',3'-dienyl)-2-ethenyl-
Formula: C11H16
CAS: 77210-41-4
Molecular weight: 148
m/z	intensity
27	240
29	140
41	620
55	60
65	140
66	420
67	280
77	320
79	999
91	900
105	360
115	50
117	70
119	290
133	50
148	180
