Mass Spectrum: Methyl 4,6-di-O-acetyl-2,3-diacetamido-2,3-dideoxy-.beta.-D-glucopyranoside
Formula: C15H24N2O8
CAS: 7721-85-9
Molecular weight: 360
m/z	intensity
53	15
54	15
55	43
56	81
57	79
58	249
59	59
60	99
61	31
67	15
68	72
69	93
70	48
71	40
72	89
73	209
74	69
75	15
79	12
80	73
81	12
82	46
83	129
84	209
85	70
86	81
87	44
88	31
94	14
95	72
96	81
97	149
98	119
99	35
100	999
101	259
102	38
107	15
108	24
109	8
110	19
111	99
112	40
113	63
114	83
115	149
116	48
121	81
122	48
123	24
124	32
125	40
126	56
127	30
128	44
129	24
135	20
138	119
139	499
140	79
141	28
142	809
143	199
144	30
145	1
147	13
148	3
149	14
150	15
151	5
152	2
153	81
154	15
155	22
156	30
157	31
158	31
159	1
165	7
166	17
167	32
168	119
169	19
170	24
171	13
179	11
180	52
181	179
182	21
183	11
184	6
185	15
186	7
195	113
196	11
197	11
198	32
199	50
200	15
201	3
207	5
208	88
209	15
210	11
221	22
222	3
227	15
228	3
240	15
241	279
242	35
268	3
300	35
301	7
329	3
