Mass Spectrum: 1,3-Dimethyl-7,7-diphenyl-6-oxa-4-thia-2-azabicyclo[3.2.0]hept-2-ene
Formula: C18H17NOS
CAS: 77233-59-1
Molecular weight: 295
m/z	intensity
51	23
77	107
91	21
105	171
106	11
113	999
114	70
115	102
152	11
165	31
178	11
182	34
183	28
190	10
193	14
