Mass Spectrum: 1-Phenyl-3-(2-nitrophenyl)-2-pyrazoline
Formula: C15H13N3O2
CAS: 77242-44-5
Molecular weight: 267
m/z	intensity
39	29
51	93
63	37
64	46
65	38
76	65
77	999
78	96
90	46
91	93
104	190
105	209
115	94
116	46
117	57
134	65
218	27
219	123
220	114
221	18
250	8
267	524
268	95
