Mass Spectrum: Octane, 1,1'-sulfonylbis-
Formula: C16H34O2S
CAS: 7726-20-7
Molecular weight: 290
m/z	intensity
39	107
40	22
41	767
42	190
43	959
44	35
45	3
47	1
48	2
50	1
51	3
53	22
55	302
56	2
57	999
58	37
59	1
63	10
64	4
65	7
66	2
67	39
68	20
69	158
70	11
71	741
72	35
73	2
75	1
77	4
79	6
80	6
81	56
82	22
83	65
84	42
85	18
86	1
87	1
89	1
91	2
93	18
94	3
95	4
96	2
97	14
98	1
99	1
103	1
105	2
107	4
108	2
109	6
110	3
111	7
112	30
113	47
114	3
117	1
119	3
121	4
123	2
135	1
137	2
143	2
145	3
159	3
160	1
161	48
162	4
163	3
175	3
177	141
179	579
180	58
181	27
182	2
193	1
205	12
206	1
207	1
219	1
233	2
247	2
257	1
273	17
274	3
