Mass Spectrum: Zederone
Formula: C15H18O3
CAS: 7727-79-9
Molecular weight: 246
m/z	intensity
26	3
27	50
28	12
29	43
30	1
31	3
37	3
38	10
39	238
40	52
41	265
42	23
43	399
44	11
45	6
46	1
49	1
50	23
51	97
52	48
53	153
54	17
55	117
56	9
57	14
58	7
59	2
60	2
61	4
62	14
63	72
64	26
65	272
66	142
67	99
68	13
69	70
70	6
71	27
72	4
73	2
74	9
75	14
76	13
77	316
78	84
79	194
80	70
81	47
82	12
83	23
84	53
85	11
86	3
87	6
88	3
89	27
90	10
91	440
92	62
93	65
94	161
95	89
96	15
97	19
98	5
99	3
100	1
101	6
102	23
103	126
104	57
105	370
106	47
107	132
108	37
109	53
110	7
111	5
113	2
114	3
115	204
116	77
117	236
118	45
119	999
120	127
121	59
122	300
123	129
124	29
125	5
126	3
127	33
128	87
129	93
130	27
131	184
132	79
133	207
134	34
135	128
136	19
137	10
138	21
139	10
140	7
141	30
142	42
143	39
144	16
145	206
146	59
147	241
148	110
149	95
150	74
151	17
152	11
153	7
154	4
155	8
156	9
157	37
158	18
159	192
160	106
161	383
162	141
163	161
164	25
165	13
166	3
167	6
168	2
169	7
170	9
171	29
172	9
173	96
174	41
175	900
176	240
177	42
178	7
179	2
181	2
182	2
183	6
184	7
185	53
186	13
187	53
188	267
189	109
190	25
191	13
192	1
195	2
196	2
197	3
198	12
199	24
200	13
201	14
202	6
203	59
204	10
205	3
209	1
210	3
211	8
212	5
213	66
214	10
215	8
216	2
217	23
218	13
219	2
225	1
226	1
227	8
228	18
229	9
230	6
231	42
232	7
233	1
245	8
246	266
247	44
248	5
249	1
