Mass Spectrum: Mannitol, 1,2:4,5-di-O-isopropylidene-, cyclic orthocarbonate (2:1), D-
Formula: C25H40O12
CAS: 7727-02-8
Molecular weight: 532
m/z	intensity
14	10
15	54
16	10
17	31
18	31
26	20
27	52
28	57
29	70
30	7
31	7
38	7
39	46
40	18
41	130
42	41
43	736
44	39
53	39
54	10
55	179
56	57
57	78
58	78
59	268
60	20
61	20
65	7
67	20
68	98
69	148
70	39
71	57
72	130
73	98
74	18
77	20
79	7
80	7
81	138
82	31
83	182
84	26
85	182
86	36
87	26
93	7
95	57
96	20
97	52
98	208
99	104
100	41
101	999
102	59
103	31
107	28
108	7
109	28
110	52
111	411
112	20
113	88
114	122
115	130
116	7
117	7
123	7
125	20
126	265
127	59
128	31
129	109
130	7
131	7
139	39
140	7
141	208
142	20
143	411
144	46
145	7
151	28
153	39
154	7
155	41
156	70
157	31
168	20
169	351
170	31
171	231
172	31
173	52
175	31
185	31
186	52
187	70
188	5
193	72
199	20
201	5
213	20
214	54
215	83
216	7
217	7
222	59
228	28
230	432
231	59
232	109
233	7
243	20
245	20
273	476
274	59
275	7
287	15
289	953
290	119
291	7
328	16
329	6
331	1
343	11
344	37
345	13
346	4
347	7
355	3
358	4
359	0
373	5
374	1
386	2
389	28
390	6
401	12
402	33
403	6
414	20
415	4
416	5
429	8
430	2
431	81
432	18
433	6
444	17
445	6
459	20
460	6
474	24
475	8
502	12
503	4
517	75
518	24
519	5
532	2
