Mass Spectrum: Nitrogen
Formula: N2
CAS: 7727-37-9
Molecular weight: 28
m/z	intensity
14	137
28	999
29	7
