Mass Spectrum: Azetidine, 2-methyl-1-(phenylmethyl)-
Formula: C11H15N
CAS: 7730-40-7
Molecular weight: 161
m/z	intensity
12	0
13	0
14	3
15	28
16	0
17	0
18	3
25	0
26	12
27	55
28	56
29	19
30	13
38	10
39	77
40	10
41	54
42	94
43	6
44	1
45	0
46	1
49	0
50	34
51	66
52	18
53	7
54	16
55	48
56	36
57	5
58	1
59	9
60	0
61	4
62	14
63	44
64	15
65	113
66	10
67	1
68	3
69	2
70	28
72	0
73	3
74	6
75	5
76	5
77	21
78	9
79	4
80	1
81	0
82	0
83	0
84	32
85	2
86	2
87	2
89	31
90	23
91	999
92	126
93	6
94	0
102	1
103	3
104	34
105	14
106	5
107	0
115	1
116	2
117	13
118	25
119	5
120	1
128	0
129	0
130	2
131	5
132	45
133	8
134	1
144	1
145	0
146	78
147	9
148	0
158	0
160	83
161	99
162	11
163	0
