Mass Spectrum: Azetidine, 1-[(4-methylphenyl)sulfonyl]-
Formula: C10H13NO2S
CAS: 7730-45-2
Molecular weight: 211
m/z	intensity
15	4
26	3
27	17
28	70
29	20
30	18
32	2
38	2
39	39
40	4
41	22
42	237
43	7
44	3
45	3
50	7
51	15
52	4
53	2
54	9
55	13
56	172
57	8
60	1
61	1
62	6
63	24
64	7
65	139
66	8
67	3
69	1
74	2
75	2
76	7
77	10
78	5
79	4
86	1
87	1
89	29
90	16
91	999
92	89
93	4
103	1
104	3
105	50
106	11
107	5
108	2
111	2
117	4
118	64
119	101
120	9
121	1
123	1
130	1
131	1
132	53
133	5
139	12
140	1
146	114
147	28
148	2
155	793
156	68
157	40
158	3
183	6
184	1
196	4
210	6
211	329
212	45
213	18
214	2
