Mass Spectrum: 4,7-Dimethoxy-2H-1,3-benzodioxole-5-carboxylic acid
Formula: C10H10O6
CAS: 7731-10-4
Molecular weight: 226
m/z	intensity
33	36
35	13
36	25
37	325
38	212
39	273
40	62
41	103
42	121
43	87
44	75
45	713
48	17
49	256
50	293
51	181
52	93
53	999
54	84
55	55
59	128
60	19
61	50
62	30
63	20
65	190
66	134
67	57
68	69
69	158
70	32
76	14
77	355
78	68
79	73
80	13
81	83
82	39
83	59
84	15
85	24
93	176
94	46
95	79
97	30
99	29
105	31
106	13
107	32
109	52
110	37
111	11
113	17
121	32
122	35
123	67
125	50
127	11
135	14
137	70
140	9
149	92
150	38
151	39
153	276
154	25
166	15
179	36
180	3
181	251
182	18
183	26
184	2
193	32
194	22
195	18
196	3
209	32
210	4
211	262
212	21
213	2
226	554
227	40
228	5
