Mass Spectrum: Ethyl 1-(2-propynyl)-2-oxocyclopentanecarboxylate
Formula: C11H14O3
CAS: 77320-46-8
Molecular weight: 194
m/z	intensity
39	999
41	370
43	270
51	220
53	320
64	230
65	840
67	400
77	950
78	300
79	740
91	960
92	440
93	920
109	370
110	310
111	540
120	280
121	790
138	530
149	260
166	380
194	50
