Mass Spectrum: Dihexyl monoselenide
Formula: C12H26Se
CAS: 7732-99-2
Molecular weight: 250
m/z	intensity
27	450
28	110
29	470
39	160
41	430
42	170
43	999
44	70
55	310
56	340
57	340
69	140
83	220
84	250
85	310
163	80
164	70
165	240
166	190
248	40
250	150
