Mass Spectrum: Water
Formula: H2O
CAS: 7732-18-5
Molecular weight: 18
m/z	intensity
16	9
17	212
18	999
19	5
20	3
