Mass Spectrum: 2-Dotriacontanone
Formula: C32H64O
CAS: 77327-15-2
Molecular weight: 464
m/z	intensity
52	7
54	18
55	176
56	49
57	372
58	594
59	999
60	42
61	4
63	8
64	5
67	39
68	32
69	172
70	37
71	422
72	29
81	49
82	144
83	142
84	17
85	194
86	12
87	4
89	5
95	51
96	217
97	78
98	14
99	21
100	42
101	14
104	3
105	13
106	4
108	5
109	36
110	26
111	29
113	18
114	30
123	15
124	21
125	15
127	34
128	7
131	8
132	4
134	4
137	9
138	7
139	5
140	4
141	4
142	3
145	13
147	8
152	5
153	4
154	10
156	4
158	4
159	7
160	7
161	10
162	5
163	10
164	3
167	8
168	3
169	6
170	3
171	10
172	3
173	4
174	3
175	4
178	5
180	5
181	4
182	3
183	11
185	8
187	6
189	5
192	4
193	6
195	4
196	3
197	4
199	12
201	12
202	3
205	5
210	8
211	8
213	13
214	5
217	3
219	3
222	5
223	5
228	4
229	4
230	7
232	5
233	4
234	4
235	10
236	5
237	4
246	3
249	4
250	5
251	10
254	5
255	9
256	9
257	9
263	9
264	5
268	4
269	9
273	6
278	12
284	8
285	4
287	4
290	4
291	15
292	7
296	3
298	4
302	3
305	5
306	9
308	3
317	11
318	5
319	3
320	9
323	4
325	4
330	3
331	4
334	10
336	3
342	5
344	5
348	10
351	3
356	3
360	3
362	18
363	4
364	3
366	4
368	4
369	8
370	4
371	4
376	4
379	4
380	3
382	3
384	15
385	6
387	6
388	3
390	10
401	5
402	26
403	9
404	41
405	11
406	13
407	4
408	4
409	5
412	4
415	3
421	5
422	7
423	4
431	4
434	8
435	4
436	3
443	3
446	65
447	25
449	47
450	15
458	4
461	3
464	161
465	75
466	17
