Mass Spectrum: 2-Pentatriacontanone
Formula: C35H70O
CAS: 77327-17-4
Molecular weight: 506
m/z	intensity
55	99
56	30
57	302
58	534
59	999
60	57
62	2
68	18
69	60
70	24
71	404
72	37
76	2
81	18
82	74
83	62
84	15
85	185
86	9
88	2
95	17
96	114
97	58
98	12
99	25
100	38
101	4
102	2
106	2
109	23
110	12
111	23
112	6
113	21
114	34
119	7
123	10
127	34
130	2
132	4
137	6
142	3
144	4
146	2
156	2
158	2
160	2
165	4
167	3
169	7
170	6
171	1
173	2
174	2
175	2
176	3
183	2
184	2
186	2
198	2
199	6
214	3
217	2
218	2
227	2
241	3
258	5
260	6
271	2
273	2
286	2
289	2
293	2
296	9
299	2
301	2
305	2
307	3
309	2
310	2
313	2
315	2
317	5
319	2
322	4
325	4
327	1
333	2
337	5
343	2
345	2
346	2
350	4
351	2
366	4
375	3
389	2
404	3
407	2
410	2
416	2
417	2
419	2
420	2
421	2
423	2
431	3
432	3
433	6
436	2
446	24
447	9
448	18
449	2
450	9
458	2
463	7
464	10
466	2
474	2
475	3
476	2
477	9
480	2
488	56
489	24
490	3
491	49
492	24
493	4
494	2
506	234
507	105
508	25
509	2
