Mass Spectrum: 2-Bromo-5-nitroanisol
Formula: C7H6BrNO3
CAS: 77337-82-7
Molecular weight: 231
m/z	intensity
15	33
16	1
25	2
26	7
27	11
29	26
30	132
31	4
36	4
37	62
38	72
39	53
40	2
41	5
42	3
43	8
44	1
45	1
46	28
48	2
49	26
50	142
51	129
52	38
53	101
54	5
55	4
59	2
60	13
61	119
62	297
63	999
64	75
65	51
66	48
67	5
68	2
69	5
72	2
73	48
74	233
75	313
76	202
77	166
78	468
79	154
80	11
81	6
82	1
86	1
87	3
88	3
89	1
90	20
91	74
92	51
93	16
94	16
95	3
104	7
105	20
106	20
107	47
108	3
109	3
115	1
116	11
117	17
118	11
119	16
120	15
121	9
122	41
123	5
124	4
128	11
129	9
130	19
131	14
132	7
133	8
134	1
135	2
137	3
140	3
141	23
142	114
143	36
144	107
145	13
146	2
147	1
152	2
153	11
154	34
155	273
156	50
157	277
158	61
159	29
160	43
161	2
162	1
170	393
171	31
172	384
173	259
174	19
175	230
176	14
184	3
185	152
186	67
187	146
188	60
189	4
190	1
200	1
201	52
202	4
203	50
204	3
214	1
215	7
216	4
217	8
218	3
231	500
232	43
233	494
234	39
235	4
