Mass Spectrum: Ethanone, 1-(2-pyridinyl)-, phenylhydrazone
Formula: C13H13N3
CAS: 7734-05-6
Molecular weight: 211
m/z	intensity
37	3
38	92
39	547
40	166
41	81
42	105
43	48
49	7
50	373
51	999
52	377
53	84
55	17
57	53
60	4
62	43
63	190
64	172
65	640
66	44
69	7
70	11
71	18
74	32
75	56
77	757
78	908
79	407
80	44
89	45
90	47
91	100
92	159
93	121
94	19
102	14
103	29
104	281
105	287
106	336
107	63
112	7
114	5
115	6
117	22
119	23
120	11
127	8
132	8
133	41
134	7
141	7
142	8
145	24
156	4
167	85
168	51
169	49
180	13
192	3
193	52
194	226
195	60
196	48
207	7
209	6
210	188
211	587
212	72
213	3
