Mass Spectrum: Isocoumarin, 3,4-dihydro-8-methoxy-3,5-dimethyl-, (R)-
Formula: C12H14O3
CAS: 7736-76-7
Molecular weight: 206
m/z	intensity
104	999
132	350
145	980
160	980
162	240
163	200
173	200
177	160
206	850
