Mass Spectrum: 1-Acrylonitryl-3,3,-dimethyldiaziridine
Formula: C6H9N3
CAS: 77376-92-2
Molecular weight: 123
m/z	intensity
26	209
27	385
28	616
29	220
30	44
38	77
39	276
40	374
41	374
42	759
43	110
44	9
51	44
52	110
53	55
54	176
55	232
56	999
57	133
66	44
67	154
68	66
69	50
70	7
81	209
82	61
83	232
84	44
85	6
97	110
98	672
99	77
122	99
123	165
124	22
125	6
