Mass Spectrum: N-Acrylonitryl-2,2,6,6-tetramethylpiperidine-4-one
Formula: C12H18N2O
CAS: 77376-90-0
Molecular weight: 206
m/z	intensity
39	71
40	11
41	173
42	171
43	24
55	361
56	473
57	28
66	61
67	8
82	165
83	999
84	83
85	9
91	153
92	51
93	723
94	85
95	91
96	10
108	683
109	525
110	83
111	9
135	93
149	51
150	103
151	53
152	4
166	32
191	165
192	33
206	385
207	61
208	5
