Mass Spectrum: Ditert.-butylaminoacrylonitryl
Formula: C11H20N2
CAS: 77376-85-3
Molecular weight: 180
m/z	intensity
41	163
42	63
43	6
56	91
57	999
58	91
59	5
68	171
69	165
70	9
92	41
93	62
94	9
109	551
110	81
111	6
124	353
125	43
165	31
180	303
181	63
182	2
