Mass Spectrum: Ethyl 3-oxoheptanoate
Formula: C9H16O3
CAS: 7737-62-4
Molecular weight: 172
m/z	intensity
14	4
15	19
17	1
18	3
25	1
26	16
27	175
28	61
29	667
30	17
31	83
32	2
37	1
38	3
39	68
40	17
41	306
42	122
43	423
44	26
45	73
46	15
47	8
50	3
51	5
52	2
53	16
54	6
55	122
56	130
57	867
58	116
59	9
60	86
61	37
62	1
65	1
66	1
67	7
68	2
69	117
70	38
71	18
72	2
73	26
74	3
75	1
77	2
79	3
80	2
81	6
82	3
83	31
84	385
85	999
86	66
87	153
88	385
89	19
90	1
97	62
98	15
99	4
100	6
101	7
102	103
103	9
104	1
108	1
111	5
112	1
113	1
114	1
115	204
116	11
117	1
125	6
126	4
127	72
128	6
129	4
130	553
131	40
132	5
143	88
144	9
145	1
154	4
155	2
157	24
158	5
171	1
172	72
173	11
174	1
