Mass Spectrum: Diisopropylphosphinoacrylonitryl
Formula: C9H16NP
CAS: 77376-94-4
Molecular weight: 169
m/z	intensity
39	110
40	12
41	553
42	371
43	999
44	81
45	5
55	73
56	313
57	443
58	63
59	7
64	163
65	33
66	61
67	5
71	73
72	5
85	543
86	107
87	10
92	263
93	21
100	71
101	93
102	7
109	125
110	9
112	121
113	10
127	283
128	10
143	22
169	183
170	19
171	1
