Mass Spectrum: Ditert.-butylphosphinacrylonitryl
Formula: C11H20NP
CAS: 77376-95-5
Molecular weight: 197
m/z	intensity
29	272
41	455
43	91
55	91
56	107
57	999
58	182
71	99
85	633
86	63
97	63
99	81
111	72
126	207
141	363
142	90
197	126
198	26
