Mass Spectrum: Tert.-butylaminoacrylonitryl
Formula: C7H12N2
CAS: 77376-84-2
Molecular weight: 124
m/z	intensity
39	101
40	42
41	661
42	253
43	164
44	643
45	41
46	32
55	143
56	151
57	999
58	61
59	5
67	65
68	353
69	253
70	63
71	105
72	11
82	51
83	43
84	33
85	63
86	6
97	51
98	21
99	41
100	5
109	181
110	43
123	21
124	221
125	51
126	1
