Mass Spectrum: Methoxymethylaminoacrylonitryl
Formula: C5H8N2O
CAS: 77376-82-0
Molecular weight: 112
m/z	intensity
27	181
28	673
29	135
30	131
31	175
32	11
40	135
41	129
42	999
43	131
44	55
45	73
46	55
47	11
51	31
52	233
53	171
54	403
55	61
56	43
57	5
66	61
67	10
68	32
69	43
70	5
79	61
80	113
81	63
82	33
97	515
98	41
112	663
113	61
114	3
