Mass Spectrum: 2,6S-Diethyl-3,5S-dimethyl-3,4-dihydro-2H-pyran
Formula: C11H20O
CAS: 77372-64-6
Molecular weight: 168
m/z	intensity
38	36
39	344
40	234
41	538
42	441
43	571
44	114
45	64
46	6
49	33
50	13
51	55
52	32
53	235
54	65
55	585
56	195
57	538
58	100
59	36
60	41
63	13
65	73
66	39
67	327
68	76
69	568
70	529
71	395
72	34
73	31
74	9
77	104
78	22
79	141
80	30
81	230
82	233
83	522
84	114
85	102
86	588
87	117
88	14
91	58
92	9
93	77
94	26
95	229
96	59
97	208
98	74
99	999
100	399
101	26
105	38
106	9
107	55
108	18
109	96
110	63
111	408
112	45
113	13
119	21
121	102
122	16
123	65
124	26
125	527
126	124
127	13
131	5
135	18
137	18
138	12
139	491
140	97
151	12
153	249
154	35
167	76
168	687
169	85
170	4
