Mass Spectrum: Diisopropylarsinacrylonitryl
Formula: C9H16AsN
CAS: 77376-96-6
Molecular weight: 213
m/z	intensity
39	93
40	42
41	413
42	162
43	999
44	113
45	131
46	73
47	7
52	41
53	133
54	232
55	101
56	6
67	91
68	142
69	52
70	102
71	9
79	61
80	121
81	43
93	172
94	92
95	94
96	11
111	163
112	48
129	531
130	41
156	121
157	21
171	393
172	45
173	8
198	22
213	153
214	16
215	1
