Mass Spectrum: Decanoic acid, 5,5-dimethyl-9-oxo-, methyl ester
Formula: C13H24O3
CAS: 77384-10-2
Molecular weight: 228
m/z	intensity
26	4
27	71
28	35
29	99
30	4
31	11
39	75
40	21
41	452
42	68
43	998
44	29
45	30
51	5
52	4
53	54
54	13
55	356
56	114
57	68
58	196
59	143
60	6
63	7
65	13
66	5
67	90
68	41
69	999
70	86
71	213
72	14
73	29
74	157
75	11
77	15
79	32
80	8
81	126
82	84
83	409
84	48
85	319
86	26
87	80
88	9
91	13
93	41
94	15
95	162
96	50
97	239
98	26
99	44
100	5
101	94
102	16
103	5
105	20
107	26
108	19
109	789
110	85
111	606
112	65
113	31
114	6
115	53
116	5
119	16
120	5
121	126
122	17
123	83
124	16
125	33
126	22
127	196
128	27
129	19
132	3
133	5
135	41
136	10
137	61
138	22
139	396
140	57
141	8
142	25
143	356
144	65
145	24
149	4
150	4
151	67
152	10
153	57
154	13
155	21
158	54
159	8
161	6
163	69
164	11
165	4
167	10
168	42
169	9
170	33
171	481
172	72
173	6
177	3
178	4
179	6
181	244
182	33
183	5
185	23
186	4
192	4
194	3
195	76
196	29
197	263
198	34
199	6
210	7
211	1
212	0
213	71
214	11
228	39
229	7
230	0
