Mass Spectrum: 2-Cyclopropene-1-carboxylic acid, 2-(1,1-dimethyl-5-oxohexyl)-, methyl ester
Formula: C13H20O3
CAS: 77383-98-3
Molecular weight: 224
m/z	intensity
26	6
27	89
28	23
29	92
30	4
31	10
37	3
38	14
39	172
40	29
41	282
42	33
43	999
44	29
45	38
50	11
51	45
52	29
53	120
54	26
55	154
56	25
57	24
58	21
59	117
60	6
61	7
62	3
63	17
64	7
65	74
66	23
67	91
68	22
69	126
70	16
71	83
72	11
73	10
74	7
75	8
76	3
77	150
78	38
79	307
80	57
81	103
82	29
83	38
84	18
85	44
86	4
87	9
91	320
92	66
93	195
94	61
95	92
96	37
97	28
98	17
99	11
100	10
101	3
103	11
104	5
105	124
106	324
107	810
108	104
109	87
110	18
111	59
112	15
113	21
114	8
115	18
116	5
117	13
118	3
119	64
120	11
121	104
122	73
123	66
124	25
125	111
126	18
127	11
128	5
129	5
130	3
131	20
132	10
133	50
134	169
135	154
136	36
137	21
138	23
139	678
140	110
141	29
142	5
143	2
144	3
145	6
146	9
147	22
148	7
149	75
150	18
151	140
152	19
153	20
154	9
155	6
156	2
157	2
159	45
160	6
161	9
162	2
163	8
164	22
165	281
166	119
167	35
168	14
169	3
173	3
174	9
175	4
177	27
178	5
179	3
180	5
181	12
182	7
183	5
191	5
192	23
193	9
194	3
195	4
199	3
206	5
209	48
210	11
211	3
224	15
225	4
