Mass Spectrum: 5-Bromo-7-methylisatin
Formula: C9H6BrNO2
CAS: 77395-10-9
Molecular weight: 239
m/z	intensity
33	9
36	28
38	257
39	309
41	49
43	85
46	4
50	807
51	999
52	597
53	115
54	31
55	19
57	21
58	6
61	205
62	238
63	305
64	107
65	84
67	45
68	6
69	7
70	6
71	6
73	102
74	216
75	360
76	476
77	674
78	152
79	68
80	44
81	62
82	34
83	13
84	17
85	40
86	56
87	72
88	60
89	128
90	27
92	20
93	26
95	9
96	2
97	4
99	24
100	49
102	197
103	265
104	965
105	153
107	63
109	4
110	3
111	3
112	3
114	10
115	11
116	11
117	14
118	9
119	14
120	2
122	1
123	1
124	2
126	2
127	13
128	27
129	16
130	22
131	13
132	16
133	12
134	3
135	1
139	1
140	2
141	9
142	4
143	9
144	4
145	2
146	1
149	4
150	1
151	1
153	8
155	189
156	175
157	33
158	11
160	9
161	12
162	2
167	2
168	8
169	3
170	6
171	3
182	265
183	469
184	251
185	411
186	37
187	3
211	442
213	424
214	28
215	2
239	297
241	309
242	20
243	3
