Mass Spectrum: Acetic acid, 2-(3-oxo-2-piperazinylideno)-, ethyl ester
Formula: C8H12N2O3
CAS: 774-89-0
Molecular weight: 184
m/z	intensity
33	14
34	5
36	1
37	4
39	99
40	181
41	245
42	453
43	251
44	368
45	60
46	5
47	0
50	0
52	114
53	258
54	295
55	273
56	77
57	24
58	9
59	9
60	1
62	2
64	3
67	112
68	245
69	120
70	322
71	73
72	91
74	2
77	1
79	5
80	32
81	377
82	117
83	156
84	269
85	144
86	39
87	6
88	0
91	2
92	1
94	18
95	77
96	11
98	69
99	102
100	12
105	0
106	2
107	7
109	258
110	669
111	306
112	999
113	68
114	12
115	1
121	0
125	8
126	16
127	92
128	12
129	0
136	24
138	592
139	801
140	104
141	10
142	1
155	22
156	31
157	2
180	1
181	18
184	957
185	83
186	8
