Mass Spectrum: 1-Butyne, 3-ethoxy-3-methyl-
Formula: C7H12O
CAS: 7740-69-4
Molecular weight: 112
m/z	intensity
39	277
41	275
43	357
51	130
52	49
53	107
55	18
57	3
59	31
63	25
65	76
67	470
69	999
81	2
83	17
97	817
111	0
