Mass Spectrum: 3,5-Heptadien-2-ol, 2,6-dimethyl-
Formula: C9H16O
CAS: 77411-76-8
Molecular weight: 140
m/z	intensity
26	13
27	164
28	25
29	106
37	8
38	30
39	309
40	57
41	281
42	20
43	88
44	3
45	5
50	48
51	124
52	57
53	141
54	20
55	60
56	11
57	5
58	6
59	8
60	7
61	10
62	20
63	57
64	14
65	146
66	38
67	116
68	44
69	14
74	11
75	12
76	7
77	239
78	63
79	415
80	95
81	65
82	16
83	3
87	3
89	12
90	5
91	808
92	139
93	73
94	13
95	7
102	3
103	23
104	8
105	233
106	47
107	999
108	100
109	28
121	18
122	346
123	42
124	5
