Mass Spectrum: Dimethylaminomethyl-isopropyl-sulfide
Formula: C6H15NS
CAS: 77422-33-4
Molecular weight: 133
m/z	intensity
41	100
42	147
43	152
44	84
45	68
46	63
47	58
48	2
56	42
57	63
58	999
59	116
60	5
61	42
76	37
89	26
90	21
91	1
133	26
134	1
