Mass Spectrum: 1,3,5-Triazin-2(3H)-one, 4,5-dihydro-4-dichloromethyl-4,6-diphenyl-
Formula: C16H13Cl2N3O
CAS: 77429-44-8
Molecular weight: 333
m/z	intensity
33	4
34	3
35	16
36	42
37	64
38	98
39	185
40	50
41	23
42	43
43	205
44	70
45	5
47	50
48	8
49	68
50	339
51	584
52	126
53	17
54	6
55	9
57	21
58	23
59	6
60	16
61	51
62	77
63	123
64	40
65	37
66	13
67	6
69	219
71	16
72	9
73	59
74	129
75	175
76	332
77	811
78	146
79	55
80	6
82	127
83	19
84	91
85	24
86	33
87	32
88	58
89	125
90	21
91	12
92	27
93	41
95	6
96	9
97	17
98	17
99	31
100	19
101	32
102	48
103	252
104	999
105	146
106	22
108	23
109	28
110	94
111	20
112	61
114	73
115	31
116	16
117	23
118	10
120	435
121	35
123	55
124	44
125	37
126	16
127	8
128	2
130	38
131	6
132	1
133	3
134	2
135	11
136	44
137	15
138	27
139	6
140	5
141	2
143	19
144	4
147	877
148	82
150	330
151	51
152	145
153	20
154	17
155	3
157	3
158	7
159	23
160	5
161	14
162	2
163	3
164	11
165	2
166	7
168	3
169	1
170	2
171	12
172	2
173	6
174	1
175	1
177	10
178	52
179	7
180	17
181	2
182	1
184	19
185	38
187	726
188	80
189	400
190	42
191	64
192	6
194	46
195	14
196	16
197	4
198	0
199	0
201	0
202	0
204	0
205	1
206	0
207	0
210	8
213	390
214	46
215	223
216	23
217	35
218	3
219	0
220	1
221	0
222	0
223	0
224	0
226	0
227	0
229	0
230	0
232	0
233	0
234	0
235	0
237	0
238	0
244	0
246	0
247	0
248	0
250	7
251	1
252	0
254	0
255	0
256	0
257	0
258	0
262	0
263	0
264	0
270	0
277	0
281	1
283	0
284	0
293	0
294	0
295	1
296	1
297	4
298	34
299	8
300	11
301	2
306	0
307	0
309	16
310	3
311	0
331	0
332	1
333	10
334	2
335	6
336	1
337	1
