Mass Spectrum: N-Morpholinomethyl-isopropyl-sulfide
Formula: C8H17NOS
CAS: 77422-34-5
Molecular weight: 175
m/z	intensity
41	146
42	161
43	213
44	36
45	26
46	16
56	182
57	94
58	4
69	26
70	36
71	26
100	999
101	94
102	3
175	10
176	4
