Mass Spectrum: 2-Chlorocyclohexanol, TMS derivative
Formula: C9H19ClOSi
CAS: 7742-88-3
Molecular weight: 206
m/z	intensity
40	5
41	75
42	11
43	42
44	25
45	90
46	10
47	40
48	5
49	5
50	5
51	10
52	5
53	35
54	15
55	46
56	6
57	16
58	13
59	42
60	10
61	23
62	5
63	15
64	6
65	22
66	6
67	27
68	5
69	18
70	15
71	8
72	15
73	460
74	43
75	152
76	15
77	27
78	10
79	62
80	15
81	999
82	65
83	6
85	7
87	5
88	6
89	5
90	5
91	12
92	10
93	290
94	23
95	110
96	10
97	13
99	12
101	45
102	5
103	7
107	8
109	5
111	7
113	10
114	5
115	5
116	13
117	5
119	5
121	5
122	5
123	270
124	22
125	80
126	10
127	8
128	15
129	560
130	65
131	26
132	5
135	5
137	5
142	5
143	15
146	5
149	45
150	6
151	16
155	26
156	5
162	5
163	7
165	5
169	5
170	5
171	11
172	5
190	20
191	400
192	61
193	150
194	25
195	7
205	5
206	6
