Mass Spectrum: 2,2-Diethoxy-1-oxa-2-silacyclo-3,5-hexadiene
Formula: C8H14O3Si
CAS: 77436-52-3
Molecular weight: 186
m/z	intensity
45	999
46	30
97	160
98	350
99	40
100	10
113	729
114	320
115	40
116	10
127	20
141	410
142	909
143	240
144	60
145	10
171	120
172	20
185	60
186	579
187	90
188	20
