Mass Spectrum: exo-1,2-O-Ethylidene-.alpha.-d-erythrofuranose
Formula: C6H10O4
CAS: 77489-43-1
Molecular weight: 146
m/z	intensity
43	999
44	400
45	690
47	90
49	30
50	20
54	40
55	140
56	120
57	210
58	40
59	30
68	50
69	140
71	230
72	30
73	70
83	130
84	60
85	190
86	70
87	40
88	20
99	40
100	20
101	60
102	60
103	40
112	20
113	40
129	20
131	90
145	20
