Mass Spectrum: 3-O-Acetyl-exo-1,2-O-ethylidene-.alpha.-d-erythrofuranose
Formula: C8H12O5
CAS: 77489-44-2
Molecular weight: 188
m/z	intensity
43	999
44	70
45	150
55	50
56	40
57	110
69	40
71	70
73	30
85	130
86	60
87	30
101	40
127	50
173	90
187	6
