Mass Spectrum: Phosphoric acid, di-2-propenyl ester
Formula: C6H11O4P
CAS: 7748-09-6
Molecular weight: 178
m/z	intensity
25	2
26	23
27	91
28	49
29	75
30	8
31	37
36	1
37	11
38	29
39	360
40	49
41	985
42	60
43	16
44	8
45	5
46	1
47	18
48	2
49	1
50	1
51	3
52	5
53	7
54	51
55	46
56	18
57	999
58	72
59	5
60	1
61	1
63	10
64	3
65	24
66	2
67	7
68	3
69	8
70	2
71	7
72	1
73	1
77	6
78	6
79	98
80	139
81	103
82	44
83	6
84	1
85	1
91	3
92	1
93	1
95	1
96	5
97	3
98	1
99	203
101	1
102	1
103	1
104	1
105	2
106	1
107	7
108	1
109	4
111	6
112	1
113	2
119	1
120	1
121	4
122	10
123	3
124	2
125	5
135	1
136	5
137	514
138	45
139	55
140	3
177	2
178	20
179	1
180	0
