Mass Spectrum: 2,7-Methanonaphthalen-3-amine, 1,2,3,4,4a,7,8,8a-octahydro-, (2.alpha.,3.alpha.,4a.beta.,7.alpha.,8a.beta.)-
Formula: C11H17N
CAS: 77483-30-8
Molecular weight: 163
m/z	intensity
26	18
27	197
28	217
29	92
30	760
31	23
38	21
39	334
40	51
41	355
42	177
43	577
44	448
45	44
50	35
51	111
52	62
53	142
54	96
55	83
56	458
57	153
58	32
63	46
64	9
65	134
66	105
67	155
68	133
69	134
70	165
71	59
72	8
77	304
78	235
79	999
80	315
81	247
82	427
83	213
84	219
85	48
86	5
91	350
92	174
93	132
94	378
95	253
96	87
97	27
104	39
105	62
106	196
107	181
108	94
109	230
110	145
111	18
115	33
116	16
117	89
118	63
119	48
120	335
121	126
122	166
123	23
131	90
132	23
133	11
134	120
135	64
136	9
145	14
146	31
147	5
148	105
149	19
150	2
161	37
162	100
163	568
164	86
165	9
