Mass Spectrum: 11-Oxatetracyclo[6.2.1.0(2,7).0(3,6)]undec-9-ene, 2,3,4,4,5,5,6-heptafluoro-
Formula: C10H5F7O
CAS: 77495-78-4
Molecular weight: 274
m/z	intensity
29	140
31	180
39	640
40	210
68	999
69	370
75	280
93	180
99	130
106	500
137	999
156	233
187	280
206	160
