Mass Spectrum: Benzoic acid, 2-[benzoyl(2,4-dichlorophenyl)amino]-
Formula: C20H13Cl2NO3
CAS: 77495-81-9
Molecular weight: 385
m/z	intensity
50	40
51	100
57	20
63	40
65	20
74	20
75	20
76	20
77	500
78	40
92	20
105	999
106	80
109	20
122	80
139	20
147	40
149	40
164	60
165	20
166	40
200	60
201	40
202	20
228	120
229	40
230	60
263	340
264	80
265	200
266	40
267	60
281	20
306	40
340	40
341	40
342	20
343	20
385	10
