Mass Spectrum: Benzoic acid, 4-(benzoylphenylamino)-
Formula: C20H15NO3
CAS: 77495-80-8
Molecular weight: 317
m/z	intensity
50	30
51	110
63	30
64	20
65	30
75	20
76	30
77	630
78	50
105	999
106	130
107	20
139	20
166	30
167	40
168	20
180	20
195	560
196	90
224	10
317	110
318	40
