Mass Spectrum: Benzenepropanoic acid, .alpha.-(acetyloxy)-4-[(2,4-dinitrophenyl)azo]-3-hydroxy-, methyl ester, (.+/-.)-
Formula: C18H16N4O9
CAS: 77495-87-5
Molecular weight: 432
m/z	intensity
12	3
13	1
14	2
15	121
16	6
17	6
18	13
24	0
25	0
26	5
27	24
28	64
29	61
30	57
31	29
32	8
33	5
36	0
37	12
38	65
39	76
40	13
41	22
42	39
43	999
44	49
45	111
46	12
47	1
48	0
49	5
50	57
51	131
52	79
53	97
54	11
55	33
56	3
57	13
58	1
59	136
60	86
61	21
62	81
63	171
64	78
65	73
66	19
67	14
68	7
69	9
70	2
71	5
72	0
73	12
74	59
75	141
76	88
77	191
78	90
79	98
80	18
81	9
82	3
83	5
84	1
85	7
86	7
87	21
88	28
89	207
90	70
91	101
92	39
93	83
94	10
95	9
96	4
97	4
98	3
99	4
100	2
101	8
102	31
103	50
104	28
105	111
106	77
107	69
108	9
109	6
110	3
111	4
112	1
113	6
114	3
115	12
116	10
117	141
118	136
119	46
120	22
121	32
122	23
123	10
124	3
125	3
126	9
127	9
128	4
129	3
130	20
131	20
132	13
133	26
134	73
135	111
136	14
137	12
138	8
139	14
140	7
141	2
142	1
143	2
144	3
145	515
146	66
147	58
148	13
149	33
150	10
151	13
152	32
153	19
154	6
155	4
156	1
157	1
158	3
159	4
160	2
161	5
162	54
163	43
164	16
165	19
166	8
167	7
168	5
169	2
170	2
171	1
172	2
173	1
174	1
175	2
176	3
177	252
178	39
179	14
180	26
181	19
182	9
183	49
184	4
185	1
186	2
187	1
188	1
189	1
190	1
191	4
192	15
193	30
194	11
195	12
196	4
197	2
198	1
199	0
200	0
201	0
202	1
203	1
204	1
205	262
206	36
207	11
208	7
209	6
210	3
211	1
212	1
213	1
214	1
215	0
216	0
217	0
218	0
219	3
220	7
221	5
222	3
223	18
224	3
225	1
226	7
227	2
228	0
229	0
230	0
231	0
232	0
233	0
234	1
235	3
236	3
237	3
238	4
239	4
240	2
241	1
242	0
243	1
244	0
246	0
247	0
248	0
249	1
250	2
251	3
252	2
253	6
254	12
255	8
256	3
257	1
258	0
261	0
262	0
263	3
264	1
265	7
266	12
267	4
268	4
269	27
270	4
271	2
272	0
273	2
274	0
278	0
279	2
280	4
281	4
282	4
283	2
284	3
285	13
286	2
287	0
288	2
289	0
293	1
294	4
295	2
296	3
297	7
298	2
299	6
300	0
301	66
302	12
303	1
308	0
309	27
310	8
311	3
312	2
313	3
314	1
315	2
316	0
320	0
321	0
323	0
324	2
325	10
326	2
327	2
328	1
329	0
330	4
331	27
332	4
333	0
336	0
338	0
339	3
340	111
341	34
342	9
343	2
344	7
345	1
346	0
353	0
354	0
355	0
356	17
357	3
358	1
369	1
370	0
371	0
372	292
373	65
374	13
375	1
385	2
386	0
387	0
388	0
389	0
390	0
