Mass Spectrum: 1H-Inden-1-one, 2,2-dibromo-2,3-dihydro-
Formula: C9H6Br2O
CAS: 7749-02-2
Molecular weight: 288
m/z	intensity
27	15
28	25
29	0
32	2
35	0
36	5
37	0
38	5
39	44
40	3
41	1
43	0
44	0
49	1
50	146
51	241
52	62
53	10
54	0
55	1
56	0
57	3
58	0
61	1
62	20
63	77
65	24
66	0
69	0
71	0
73	1
74	77
75	322
76	289
77	58
78	4
79	8
80	20
81	8
82	16
86	2
87	8
88	2
89	15
90	22
91	23
92	0
98	4
99	11
100	15
101	308
102	999
103	116
104	33
105	14
106	1
107	6
113	1
114	0
115	1
117	1
118	0
119	1
121	0
127	0
128	1
129	161
130	253
131	105
132	11
133	1
135	2
136	0
139	0
141	1
143	0
145	0
147	0
149	0
150	2
151	0
152	2
153	1
154	1
155	4
156	0
157	4
158	0
159	0
160	0
161	1
166	0
171	0
179	2
180	10
181	46
182	12
183	41
184	3
185	0
199	0
201	0
203	1
205	0
207	1
208	15
209	870
210	116
211	878
212	94
213	6
287	0
288	125
289	13
290	259
291	25
292	127
293	12
294	1
