Mass Spectrum: 4a,7a-Epoxy-5H-cyclopenta[a]cyclopropa[f]cycloundecene-2,4,7,10,11-pentol, 1,1a,2,3,4,6,7,10,11,11a-decahydro-1,1,3,6,9-pentamethyl-, 2-acetate 7,10,11-tribenzoate
Formula: C43H46O10
CAS: 77495-84-2
Molecular weight: 722
m/z	intensity
12	4
13	8
14	25
15	74
16	14
17	5
18	8
24	2
25	4
26	8
27	26
28	80
29	49
30	2
31	12
32	12
36	0
37	8
38	9
39	36
40	7
41	74
42	55
43	487
44	37
45	314
46	4
47	1
48	0
49	4
50	37
51	98
52	15
53	24
54	4
55	49
56	9
57	24
58	3
59	7
60	253
61	8
62	4
63	7
64	1
65	17
66	6
67	28
68	5
69	61
70	9
71	14
72	1
73	6
74	14
75	12
76	27
77	623
78	74
79	26
80	8
81	24
82	9
83	29
84	6
85	11
86	1
87	1
88	0
89	2
90	1
91	43
92	9
93	29
94	10
95	37
96	24
97	20
98	9
99	5
100	2
101	3
102	1
103	5
104	15
105	999
106	265
107	30
108	15
109	67
110	11
111	15
112	3
113	3
114	1
115	11
116	4
117	8
118	4
119	20
120	10
121	33
122	123
123	35
124	8
125	14
126	3
127	5
128	9
129	11
130	4
131	10
132	8
133	23
134	8
135	43
136	19
137	43
138	27
139	12
140	3
141	8
142	5
143	9
144	6
145	16
146	9
147	29
148	21
149	37
150	30
151	19
152	6
153	8
154	2
155	6
156	5
157	11
158	6
159	20
160	11
161	24
162	14
163	25
164	10
165	20
166	5
167	9
168	3
169	7
170	5
171	12
172	10
173	19
174	10
175	20
176	21
177	22
178	15
179	9
180	4
181	8
182	3
183	7
184	4
185	14
186	7
187	27
188	16
189	29
190	12
191	9
192	5
193	12
194	16
195	9
196	4
197	14
198	7
199	14
200	9
201	15
202	24
203	16
204	7
205	18
206	9
207	6
208	2
209	9
210	5
211	11
212	6
213	14
214	8
215	20
216	12
217	25
218	7
219	7
220	2
221	4
222	2
223	5
224	6
225	13
226	9
227	19
228	9
229	15
230	6
231	7
232	5
233	4
234	2
235	6
236	3
237	7
238	9
239	15
240	10
241	12
242	14
243	20
244	8
245	6
246	2
247	5
248	1
249	5
250	5
251	8
252	6
253	19
254	8
255	19
256	10
257	9
258	3
259	4
260	2
261	3
262	1
263	5
264	1
265	4
266	2
267	20
268	14
269	34
270	8
271	12
272	4
273	7
274	2
275	1
276	0
277	2
278	6
279	12
280	4
281	21
282	6
283	6
284	3
285	12
286	4
287	3
288	0
289	1
290	0
291	1
292	1
293	3
294	4
295	11
296	29
297	25
298	11
299	9
300	3
301	1
302	0
303	1
304	0
305	1
306	0
307	1
308	1
309	10
310	8
311	8
312	2
313	31
314	19
315	12
316	4
317	1
318	0
319	1
320	1
321	2
322	2
323	3
324	1
325	1
326	0
327	2
328	1
329	1
330	0
331	15
332	5
333	1
334	1
335	1
336	1
337	1
338	4
339	2
340	0
341	3
342	1
343	0
344	0
345	0
346	0
347	1
348	1
349	1
350	1
351	3
352	1
353	1
354	0
355	1
356	3
357	4
358	1
359	1
360	3
361	2
362	0
363	1
364	0
365	1
366	0
367	0
368	0
369	0
370	0
371	1
372	0
373	6
374	3
375	3
376	1
377	2
378	1
379	0
380	0
381	0
382	0
383	0
384	0
385	1
386	0
387	1
388	0
389	2
390	1
391	2
392	0
393	0
394	0
395	0
396	0
397	0
398	0
399	0
400	2
401	14
402	5
403	4
404	1
405	0
406	0
407	1
408	0
409	0
410	0
411	0
412	0
413	0
414	0
415	0
416	0
417	1
418	13
419	20
420	22
421	6
422	1
423	0
425	0
426	0
427	0
430	0
431	0
432	0
433	0
434	0
435	13
436	7
437	2
438	0
439	0
440	0
441	0
442	0
443	0
444	0
445	0
446	0
448	0
449	0
453	0
454	0
455	0
456	0
457	0
460	0
461	0
462	0
463	5
464	1
465	0
467	0
469	0
470	12
471	0
472	0
473	0
474	0
477	0
478	4
479	4
480	1
481	0
482	0
483	0
485	0
486	0
487	0
492	0
493	0
494	0
495	1
496	1
497	0
498	0
499	1
500	0
511	0
512	0
519	0
522	1
523	1
524	0
525	4
526	1
527	0
537	0
538	0
539	0
540	22
541	14
542	4
543	0
551	0
552	0
553	0
557	2
558	1
559	0
582	0
583	0
585	38
586	15
587	3
588	0
598	0
599	0
600	25
601	11
602	2
603	0
645	0
647	0
660	0
662	5
663	6
664	2
665	0
722	4
723	1
724	0
