Mass Spectrum: Benzoic acid, 2-(benzoylphenylamino)-3,5-dibromo-
Formula: C20H13Br2NO3
CAS: 77495-82-0
Molecular weight: 473
m/z	intensity
50	20
51	110
63	20
65	20
74	20
75	20
76	20
77	500
78	40
105	999
106	80
122	20
139	30
140	20
164	40
165	40
166	70
180	30
227	20
245	20
247	20
272	20
274	20
351	20
352	120
353	20
354	210
355	30
356	110
357	20
432	30
473	10
474	10
475	20
476	10
477	10
