Mass Spectrum: dl-m-Tyrosine
Formula: C9H11NO3
CAS: 775-06-4
Molecular weight: 181
m/z	intensity
14	1
15	9
16	3
17	25
18	87
26	3
27	24
28	169
29	12
30	55
31	9
32	7
36	2
37	4
38	12
39	65
40	9
41	14
42	26
43	37
44	21
45	9
46	79
47	1
49	1
50	15
51	36
52	19
53	30
54	5
55	14
56	11
57	4
58	9
59	5
60	1
61	3
62	8
63	24
64	10
65	39
66	9
67	10
68	43
69	3
70	1
71	1
73	1
74	999
75	32
76	8
77	115
78	28
79	52
80	21
81	14
82	2
85	1
86	1
87	2
88	1
89	15
90	22
91	139
92	13
93	7
94	19
95	4
96	1
101	2
102	1
103	1
104	4
105	6
106	15
107	390
108	461
109	52
110	4
111	1
116	8
117	11
118	17
119	23
120	17
121	3
122	1
127	1
128	2
132	1
133	7
134	32
135	31
136	365
137	35
138	3
141	1
145	1
146	1
147	2
148	1
149	1
150	1
163	4
164	4
165	1
179	2
180	1
181	157
182	18
183	2
