Mass Spectrum: Phosphetane, 2,2,3,4,4-pentamethyl-1-(phenylmethoxy)-, 1-oxide
Formula: C15H23O2P
CAS: 77508-90-8
Molecular weight: 266
m/z	intensity
39	50
41	140
42	40
43	70
47	30
55	220
57	160
65	140
69	320
70	90
90	140
91	999
97	250
106	90
110	30
111	110
112	70
117	30
119	130
133	130
143	20
157	50
158	40
159	20
160	270
170	30
175	750
197	70
198	50
223	10
251	40
264	20
266	160
