Mass Spectrum: 10-Benzoyloxybenzo[e]pyrene
Formula: C27H16O2
CAS: 77508-18-0
Molecular weight: 372
m/z	intensity
26	2
27	9
29	17
36	1
39	8
40	12
41	16
42	4
43	24
44	13
45	7
50	8
51	38
52	3
54	2
55	13
56	5
57	10
58	2
60	5
67	5
68	3
69	10
70	4
71	4
73	5
74	2
75	3
76	7
77	297
78	21
79	3
81	5
82	3
83	5
84	2
85	2
91	2
95	4
96	2
97	3
98	3
104	2
105	999
106	76
107	6
111	2
118	6
119	8
120	2
129	1
134	2
187	5
200	2
207	15
208	3
209	3
210	2
211	10
212	4
213	7
224	2
235	13
236	12
237	78
238	40
239	144
240	31
241	4
248	2
250	5
267	15
268	21
269	4
313	3
372	280
373	81
374	12
