Mass Spectrum: 9-Hexadecenoic acid, phenylmethyl ester, (Z)-
Formula: C23H36O2
CAS: 77509-01-4
Molecular weight: 344
m/z	intensity
26	12
27	69
36	38
38	19
39	119
40	12
41	358
42	73
43	265
44	35
45	19
50	12
51	35
52	15
53	31
54	73
55	438
56	62
57	119
60	27
62	12
63	27
65	104
67	146
68	50
69	358
70	31
71	54
73	42
77	31
78	19
79	50
81	138
82	42
83	238
84	31
85	31
87	12
89	31
90	27
91	999
92	100
93	38
94	12
95	100
96	23
97	169
98	26
99	31
101	12
105	27
106	12
107	42
108	38
109	65
110	12
111	96
112	15
113	15
115	12
117	12
119	15
121	23
123	31
125	38
126	31
127	19
128	15
129	15
133	35
135	27
137	54
139	23
141	12
143	12
147	23
151	50
153	15
155	12
167	12
169	12
171	12
179	15
193	15
217	35
235	58
253	27
