Mass Spectrum: Phosphetane, 2,2,3,4,4-pentamethyl-1-(methylthio)-, 1-oxide
Formula: C9H19OPS
CAS: 77508-91-9
Molecular weight: 206
m/z	intensity
29	60
39	60
41	420
43	110
47	90
55	450
57	110
63	60
69	220
70	120
78	160
89	999
90	90
91	90
95	100
97	530
110	30
111	70
112	80
117	40
121	80
136	250
137	50
138	450
143	30
157	20
159	30
160	30
164	330
191	190
206	360
