Mass Spectrum: Ethanone, 1-[3-(4-bromophenyl)-4,5-dihydro-5-phenyl-4-isoxazolyl]-
Formula: C17H14BrNO2
CAS: 77508-72-6
Molecular weight: 343
m/z	intensity
43	999
50	80
51	130
52	30
62	20
63	60
64	20
65	40
69	20
74	30
75	100
76	100
77	440
78	80
83	30
87	20
88	50
89	70
90	40
91	170
92	30
94	50
95	20
102	70
103	110
104	30
105	560
106	70
113	20
114	30
115	60
116	30
117	30
120	70
128	30
131	70
145	60
146	20
147	130
155	30
157	30
161	270
162	420
163	70
164	20
165	60
169	20
180	40
181	20
182	40
183	30
184	30
187	20
188	20
189	170
190	50
191	60
192	20
193	30
194	30
195	20
196	20
197	20
204	30
205	50
222	70
223	50
224	380
225	70
226	340
227	40
238	70
240	50
256	20
257	20
269	30
271	30
272	30
274	20
284	90
285	20
286	80
287	20
300	260
301	230
302	290
303	220
343	40
345	40
