Mass Spectrum: Propenamide, 3-(2-hydroxyphenyl)-N,N-dimethyl-
Formula: C11H13NO2
CAS: 77509-72-9
Molecular weight: 191
m/z	intensity
12	3
13	2
14	13
15	256
16	5
17	4
18	127
19	2
26	14
27	46
28	100
29	34
30	26
31	6
32	1
36	1
37	10
38	42
39	191
40	30
41	54
42	234
43	75
44	309
45	999
46	47
47	2
49	3
50	42
51	105
52	22
53	36
54	4
55	11
56	27
57	4
58	22
59	5
61	10
62	40
63	135
64	54
65	231
66	20
67	4
68	3
69	1
70	2
72	127
73	15
74	19
75	61
76	12
77	55
78	10
79	7
80	2
82	16
85	2
86	8
87	8
89	136
90	95
91	437
92	49
93	4
94	3
96	5
97	2
98	19
99	3
100	1
101	38
103	544
104	52
105	7
106	2
107	3
115	3
116	2
118	221
119	36
120	16
121	3
130	3
131	8
132	7
133	4
134	4
144	2
145	4
146	21
147	364
148	39
149	3
150	2
158	1
159	2
160	2
162	1
174	9
175	2
176	1
190	2
191	32
192	4
193	0
