Mass Spectrum: 6,9,12-Octadecatrienoic acid, phenylmethyl ester, (Z,Z,Z)-
Formula: C25H36O2
CAS: 77509-03-6
Molecular weight: 368
m/z	intensity
26	29
27	88
29	141
31	17
36	58
38	23
39	117
40	47
41	306
42	58
43	265
44	94
45	29
50	29
51	47
52	23
53	35
54	52
55	306
56	35
57	153
58	11
62	11
63	29
64	11
65	118
66	35
67	306
68	47
69	147
70	29
71	76
73	70
74	11
75	11
76	11
77	76
78	76
79	206
80	112
81	135
82	29
83	76
84	11
85	58
87	11
89	23
90	11
91	999
92	106
93	123
94	17
95	70
96	17
97	52
98	17
99	11
105	52
106	23
107	52
108	23
109	35
111	23
117	35
119	58
120	11
121	41
123	17
125	11
126	35
127	17
128	17
129	17
131	23
133	35
135	29
137	11
147	41
149	47
150	11
151	17
161	35
163	11
175	11
179	23
207	47
221	17
277	17
281	17
368	17
