Mass Spectrum: 1H-Cyclopropa[3,4]benz[1,2-e]azulene-5,7b,9,9a-tetrol, 1a,1b,4,4a,5,7a,8,9-octahydro-3-(hydroxymethyl)-1,1,6,8-tetramethyl-, 5,9,9a-triacetate, [1aR-(1a.alpha.,1b.beta.,4a.beta.,5.beta.,7a.alpha.,7b.alpha.,8.alpha.,9.beta.,9a.alpha.)]-
Formula: C26H36O8
CAS: 77508-64-6
Molecular weight: 476
m/z	intensity
12	6
13	4
14	29
15	80
16	7
17	7
18	28
19	4
24	2
25	3
26	16
27	140
28	76
29	140
30	5
31	130
32	2
33	1
35	0
36	1
37	4
38	13
39	230
40	46
41	580
42	84
43	999
44	86
45	140
46	2
47	6
48	0
49	1
50	16
51	61
52	32
53	180
54	40
55	250
56	25
57	170
58	28
59	52
60	81
61	49
62	6
63	28
64	9
65	110
66	58
67	230
68	44
69	400
70	74
71	110
72	13
73	28
74	8
75	20
76	7
77	250
78	100
79	320
80	150
81	170
82	44
83	390
84	51
85	58
86	15
87	29
88	6
89	18
90	6
91	350
92	77
93	290
94	67
95	210
96	200
97	90
98	28
99	29
100	11
101	34
102	14
103	51
104	28
105	210
106	61
107	170
108	51
109	150
110	35
111	60
112	29
113	28
114	48
115	110
116	43
117	98
118	39
119	150
120	72
121	150
122	120
123	90
124	42
125	110
126	20
127	45
128	84
129	110
130	72
131	220
132	57
133	86
134	42
135	76
136	71
137	49
138	45
139	33
140	15
141	60
142	52
143	140
144	69
145	120
146	38
147	90
148	87
149	110
150	28
151	50
152	41
153	44
154	20
155	63
156	55
157	120
158	44
159	110
160	57
161	86
162	48
163	36
164	23
165	56
166	31
167	38
168	21
169	56
170	47
171	71
172	59
173	110
174	51
175	63
176	42
177	42
178	24
179	31
180	18
181	39
182	29
183	77
184	34
185	62
186	29
187	55
188	31
189	54
190	42
191	35
192	23
193	32
194	19
195	60
196	37
197	64
198	41
199	93
200	110
201	80
202	26
203	34
204	17
205	22
206	12
207	24
208	24
209	41
210	26
211	50
212	25
213	77
214	30
215	32
216	34
217	54
218	42
219	24
220	12
221	20
222	17
223	33
224	14
225	40
226	47
227	53
228	27
229	26
230	16
231	28
232	12
233	16
234	12
235	29
236	12
237	33
238	17
239	27
240	22
241	26
242	12
243	27
244	26
245	54
246	14
247	14
248	10
249	18
250	15
251	22
252	12
253	37
254	13
255	24
256	13
257	13
258	14
259	16
260	10
261	12
262	5
263	24
264	8
265	36
266	18
267	26
268	30
269	22
270	10
271	19
272	8
273	9
274	4
275	5
276	9
277	14
278	52
279	30
280	15
281	39
282	12
283	36
284	19
285	22
286	16
287	15
288	6
289	4
290	2
291	2
292	2
293	3
294	15
295	29
296	140
297	57
298	20
299	19
300	9
301	8
302	4
303	3
304	2
305	2
306	1
307	2
308	1
309	2
310	4
311	6
312	34
313	33
314	85
315	25
316	9
317	4
318	2
319	1
320	1
321	1
322	1
323	6
324	2
325	8
326	3
327	5
328	12
329	5
330	11
331	8
332	9
333	2
334	1
335	0
336	1
337	3
338	17
339	9
340	6
341	4
342	2
343	3
344	3
345	2
346	2
347	1
348	1
349	1
350	0
351	0
352	0
353	0
354	7
355	16
356	59
357	24
358	10
359	3
360	1
361	1
362	1
363	0
364	0
365	0
366	0
367	0
368	0
369	0
370	2
371	4
372	12
373	14
374	27
375	8
376	2
377	0
378	0
379	0
380	0
381	0
382	0
383	0
384	0
385	1
386	1
387	1
388	1
389	2
390	2
391	1
392	1
393	0
394	0
395	0
396	0
397	0
398	19
399	5
400	2
401	2
402	1
403	1
404	0
405	0
406	0
407	0
408	0
409	0
410	0
411	0
412	0
413	0
414	3
415	6
416	25
417	15
418	4
419	1
420	0
421	0
422	0
423	0
424	0
425	0
426	0
427	0
428	0
430	1
431	1
432	2
433	1
434	1
435	0
436	0
438	0
439	0
440	1
441	0
442	0
444	0
445	0
446	0
447	0
448	0
450	0
454	0
456	0
457	0
458	3
459	1
460	0
461	0
462	0
464	0
465	0
470	0
472	0
474	0
475	0
476	6
477	2
478	0
