Mass Spectrum: 5,8,11,14-Eicosatetraenoic acid, phenylmethyl ester, (all-Z)-
Formula: C27H38O2
CAS: 77509-05-8
Molecular weight: 394
m/z	intensity
26	18
27	53
29	69
31	9
35	9
36	83
37	16
38	18
39	114
40	25
41	177
42	23
43	93
44	55
45	32
50	27
51	44
52	23
53	25
54	32
55	163
56	30
57	76
60	13
61	9
62	16
63	51
64	16
65	139
66	37
67	167
68	23
69	95
70	11
71	48
73	34
77	60
78	53
79	149
80	79
81	109
82	30
83	41
84	9
85	16
87	9
89	34
90	20
91	999
92	109
93	109
94	25
95	51
96	13
97	27
98	13
105	79
106	16
107	27
108	20
109	20
111	11
113	9
115	9
117	32
119	34
121	30
123	11
125	13
126	72
127	16
128	25
129	18
131	23
133	16
135	18
137	11
141	16
143	16
145	25
147	25
149	9
150	23
155	9
161	9
165	20
179	9
187	13
205	13
207	9
303	16
