Mass Spectrum: 2,3-Dehydro-4-oxo-.beta.-ionone
Formula: C13H16O2
CAS: 77503-87-8
Molecular weight: 204
m/z	intensity
43	999
55	319
57	303
69	198
71	153
73	100
81	127
83	137
97	125
107	64
109	88
123	61
133	85
147	73
161	354
162	90
189	106
204	93
