Mass Spectrum: Pentanoic acid, 4-methyl-, phenylmethyl ester
Formula: C13H18O2
CAS: 77509-00-3
Molecular weight: 206
m/z	intensity
26	35
27	155
29	125
31	15
32	0
38	15
39	115
40	45
41	180
42	60
43	50
44	125
45	15
46	25
50	25
51	65
52	20
53	30
54	10
55	100
56	30
57	50
59	15
60	15
62	10
63	40
64	20
65	135
66	15
67	15
68	13
69	100
70	25
71	215
72	15
73	60
74	15
75	10
76	23
77	90
78	25
79	100
80	25
81	35
82	10
83	10
84	10
85	15
86	10
87	15
88	10
89	75
90	140
91	999
92	290
93	25
95	10
97	100
98	15
99	165
100	20
101	10
103	10
104	15
105	45
106	25
107	100
108	675
109	65
110	10
114	20
115	140
116	15
117	15
119	18
131	10
132	10
133	20
134	10
145	15
146	10
150	15
151	10
165	15
177	15
178	18
179	25
180	23
188	23
192	10
206	50
207	25
208	10
