Mass Spectrum: Methanone, (4,5-dihydro-3,5-diphenyl-4-isoxazolyl)phenyl-
Formula: C22H17NO2
CAS: 77508-74-8
Molecular weight: 327
m/z	intensity
51	30
76	10
77	240
78	20
89	10
103	20
105	999
106	30
206	10
207	10
222	10
223	20
224	40
327	20
