Mass Spectrum: Ethanone, 1-[3-(4-bromophenyl)-4,5-dihydro-4-phenyl-5-isoxazolyl]-
Formula: C17H14BrNO2
CAS: 77508-79-3
Molecular weight: 343
m/z	intensity
43	230
50	40
51	50
63	50
64	20
65	100
75	60
76	50
77	40
89	130
90	130
91	999
92	80
102	50
103	40
116	40
118	30
119	160
120	50
131	10
155	50
189	20
191	20
192	20
193	190
194	30
271	20
272	50
273	30
274	50
299	30
300	140
301	30
302	140
303	20
343	30
345	30
