Mass Spectrum: Phosphetane, 2,2,3,4,4-pentamethyl-1-propoxy-, 1-oxide
Formula: C11H23O2P
CAS: 77508-88-4
Molecular weight: 218
m/z	intensity
29	60
39	70
41	360
42	180
43	340
47	70
53	40
55	360
57	130
59	790
65	190
69	280
70	170
71	60
80	50
81	40
82	30
83	90
84	40
89	40
90	60
92	130
97	890
106	999
107	130
108	190
109	130
110	40
111	60
112	240
120	140
121	60
133	130
134	40
141	20
143	20
145	10
147	60
148	150
149	40
150	50
159	50
160	20
161	320
162	60
163	20
175	50
176	90
177	170
189	20
203	240
217	40
218	130
