Mass Spectrum: 1-Propanone, 1-(4,5-dihydro-3,5-diphenyl-4-isoxazolyl)-
Formula: C18H17NO2
CAS: 77508-71-5
Molecular weight: 279
m/z	intensity
18	20
27	70
28	40
29	680
30	20
39	50
50	30
51	150
52	20
55	20
57	999
58	30
63	50
64	20
65	40
69	20
76	40
77	410
78	50
89	50
91	110
102	20
103	110
104	70
105	250
106	30
115	40
116	30
120	50
128	30
131	70
144	60
145	100
146	860
147	230
148	20
165	50
174	50
175	20
176	180
177	20
189	50
190	20
191	90
192	20
194	20
206	240
207	40
222	580
223	810
224	140
279	50
280	20
