Mass Spectrum: Ethanone, 1-(4,5-dihydro-3,4-diphenyl-5-isoxazolyl)-
Formula: C17H15NO2
CAS: 77508-80-6
Molecular weight: 265
m/z	intensity
43	170
50	20
51	80
63	50
64	20
65	90
76	30
77	130
78	20
89	120
90	90
91	999
92	80
103	80
104	50
105	20
115	20
116	60
117	20
118	20
119	120
120	50
131	30
145	20
152	20
165	50
166	20
167	40
192	20
193	150
194	420
195	80
221	30
222	590
223	100
265	110
266	20
