Mass Spectrum: endo-2,3-O-Ethylidene-.beta.-d-erythrofuranose
Formula: C6H10O4
CAS: 77519-84-7
Molecular weight: 146
m/z	intensity
43	960
44	170
45	999
47	150
54	40
55	200
56	250
57	400
58	40
59	40
69	40
71	200
72	40
73	80
85	180
102	90
131	50
145	10
