Mass Spectrum: L-Leucine, N-[N,O-bis(trifluoroacetyl)-L-seryl]-, methyl ester
Formula: C14H18F6N2O6
CAS: 77536-44-8
Molecular weight: 424
m/z	intensity
33	19
38	2
39	41
40	10
41	183
42	86
43	230
44	135
45	1
46	1
47	1
50	4
51	7
52	4
53	17
54	15
55	100
56	33
57	82
58	15
59	42
60	52
61	16
65	3
66	2
67	25
68	19
69	117
70	84
71	39
72	4
73	58
74	12
75	3
76	3
77	4
78	5
79	5
80	3
81	13
82	12
83	30
84	41
85	23
86	999
87	67
88	159
89	21
90	5
91	3
92	1
93	2
94	2
95	10
96	9
97	19
98	13
99	5
100	4
101	7
102	38
103	3
105	1
107	2
108	7
109	5
110	44
111	8
112	19
113	14
114	5
115	9
116	2
118	3
121	1
123	3
124	3
125	4
126	11
127	9
128	29
129	30
130	8
131	3
137	1
138	72
139	338
140	25
141	5
143	1
144	125
145	11
146	28
147	3
149	8
150	4
151	1
153	8
154	1
155	3
156	92
157	13
159	4
162	1
163	1
164	2
165	9
166	5
167	8
168	2
169	1
171	2
172	65
173	7
178	8
179	6
180	2
181	9
182	1
183	30
184	6
185	5
194	1
195	1
199	3
201	2
204	1
210	6
211	1
213	4
215	1
222	23
223	3
225	1
226	1
227	1
229	1
235	4
237	2
238	16
239	5
240	12
241	5
242	4
243	4
251	6
253	7
254	2
255	1
256	9
257	7
259	2
266	2
267	6
269	310
270	39
271	4
272	54
273	4
274	1
281	3
284	35
285	11
286	1
295	2
296	2
297	7
298	48
299	7
313	3
328	3
365	30
366	5
368	4
