Mass Spectrum: L-Methionine, N-(N-acetyl-L-leucyl)-, butyl ester
Formula: C17H32N2O4S
CAS: 77536-45-9
Molecular weight: 360
m/z	intensity
27	81
28	64
29	116
30	168
31	11
35	23
39	40
41	162
42	52
43	418
44	343
45	23
46	11
47	23
48	11
53	11
54	23
55	46
56	197
57	93
59	17
60	23
61	372
62	11
63	17
67	17
68	23
69	23
70	58
71	11
72	23
73	11
74	23
75	46
82	17
83	11
84	46
85	17
86	999
87	58
88	34
96	11
97	17
98	52
99	23
100	17
101	11
102	23
103	11
104	191
105	11
111	11
112	29
114	29
115	17
116	11
126	11
127	11
128	633
129	110
130	52
131	23
132	29
142	11
144	11
146	29
148	11
149	11
155	17
156	238
157	34
158	17
159	23
162	162
163	23
164	17
170	23
173	11
188	116
189	11
190	11
204	17
205	23
206	17
212	87
213	17
225	58
226	11
229	17
230	34
232	52
244	52
286	104
287	23
360	23
