Mass Spectrum: L-Tyrosine, N-(N-acetyl-L-alanyl)-, butyl ester
Formula: C18H26N2O5
CAS: 77536-36-8
Molecular weight: 350
m/z	intensity
39	41
40	16
41	103
42	60
43	225
44	999
45	28
46	5
50	11
51	20
52	16
53	24
54	5
55	26
56	24
57	78
58	7
59	5
60	7
62	1
63	7
64	5
65	20
66	3
67	1
68	5
69	7
70	11
71	3
72	45
73	5
74	37
75	13
76	5
77	78
78	28
79	11
80	5
81	5
82	3
83	1
84	3
85	9
86	467
87	178
88	9
89	46
90	13
91	52
92	7
93	3
94	18
95	3
97	1
98	1
99	9
100	7
101	3
102	3
103	3
104	3
105	5
106	15
107	722
108	108
109	9
111	5
112	3
113	18
114	859
115	58
116	9
117	3
118	15
119	22
120	63
121	11
122	5
123	13
124	3
127	3
128	41
129	9
130	20
131	866
132	69
133	15
134	30
135	63
136	315
137	28
138	3
144	9
145	5
146	7
147	103
148	13
149	11
160	1
161	5
162	18
163	15
164	360
165	43
166	7
167	3
170	60
171	5
172	1
173	1
174	3
177	7
178	5
179	3
180	11
182	1
185	7
201	1
202	5
203	5
205	1
208	1
217	1
220	240
221	33
222	5
233	3
234	1
235	7
236	5
237	3
238	1
244	28
245	3
248	3
264	3
276	1
277	13
278	1
279	1
350	13
351	1
