Mass Spectrum: L-Tyrosine, N-(N-acetylglycyl)-, butyl ester
Formula: C17H24N2O5
CAS: 77536-34-6
Molecular weight: 336
m/z	intensity
15	28
26	14
27	79
28	33
29	115
30	395
31	21
38	14
39	86
40	14
41	158
42	28
43	330
44	28
45	7
46	7
50	14
51	36
52	28
53	28
54	7
55	36
56	36
57	86
58	14
59	7
60	7
62	7
63	21
64	7
65	28
66	7
72	230
73	86
74	57
75	50
76	7
77	86
78	43
79	14
85	7
86	7
89	14
90	14
91	71
92	7
94	21
95	7
99	14
100	446
101	28
102	7
103	7
104	7
105	7
106	21
107	999
108	143
109	14
114	64
115	7
116	7
117	510
118	43
119	36
120	100
121	21
123	14
130	43
131	43
132	21
133	28
134	43
135	100
136	287
137	28
144	7
146	7
147	143
148	21
149	7
156	64
157	7
162	14
163	21
164	561
165	71
166	7
177	14
178	21
179	7
180	14
188	7
219	14
220	438
221	64
222	7
230	28
235	7
236	7
237	7
262	14
263	14
336	21
