Mass Spectrum: 1,3,5-Triazine, 2,4-bis(4-methylphenyl)-6-phenyl-
Formula: C23H19N3
CAS: 7753-06-2
Molecular weight: 337
m/z	intensity
26	0
27	3
38	1
39	14
41	0
46	1
50	3
51	10
52	3
53	0
54	0
61	0
62	2
63	10
64	5
65	12
66	1
67	0
74	0
75	5
76	19
77	21
78	0
79	0
87	1
88	3
89	58
90	84
91	40
92	2
94	0
99	0
100	0
101	0
102	6
103	43
104	46
105	2
106	0
107	0
109	0
110	3
112	0
114	1
115	2
116	146
117	999
118	174
119	15
120	0
129	3
130	0
139	0
140	0
141	0
143	11
144	1
147	0
149	0
151	0
152	0
154	0
161	0
164	0
165	1
166	0
167	0
168	1
169	8
177	0
178	0
179	0
190	1
191	1
192	1
193	0
194	0
202	0
205	2
207	0
216	0
217	1
218	2
219	18
220	11
221	1
231	1
232	1
233	12
234	4
235	0
252	0
266	0
309	0
320	0
321	0
322	0
323	6
324	1
325	0
335	1
336	11
337	779
338	192
339	24
340	2
