Mass Spectrum: N-Acetyl-S-benzyl-L-cysteine methyl ester
Formula: C13H17NO3S
CAS: 77549-14-5
Molecular weight: 267
m/z	intensity
44	40
45	20
57	10
60	40
65	10
73	10
74	10
84	10
85	10
86	100
87	30
88	120
89	10
91	999
92	80
102	30
115	20
116	10
117	100
122	10
123	20
130	20
134	90
135	10
137	30
144	60
145	20
147	10
148	20
149	50
166	40
175	60
176	290
177	20
178	10
193	30
208	310
209	40
210	30
252	80
253	10
267	120
268	20
