Mass Spectrum: 11-Oxatetracyclo[6.2.1.0(2,7).0(3,6)]undec-9-ene, 2,3,4,4,5,5,6,7-octafluoro-
Formula: C10H4F8O
CAS: 77549-75-8
Molecular weight: 292
m/z	intensity
39	290
68	999
69	160
93	130
100	30
101	60
105	60
112	30
113	30
114	30
117	60
124	190
155	320
163	60
174	100
194	30
205	100
224	160
