Mass Spectrum: 3-Phenyl-4-benzoyl-7-acetoxymethyl-2,6-dioxa-3-azabicyclo[3.3.0]-7-octene
Formula: C21H19NO5
CAS: 77541-41-4
Molecular weight: 365
m/z	intensity
39	140
41	100
43	330
45	60
50	140
51	400
52	180
53	140
59	80
65	60
66	50
74	40
76	50
77	999
78	110
80	50
81	320
91	40
93	110
94	40
97	40
98	150
104	510
105	790
106	160
122	190
140	80
184	60
200	240
201	150
209	90
225	50
243	80
260	80
365	10
