Mass Spectrum: 3-Phenyl-4-benzoyl-7-mercaptomethyl-2,6-dioxa-3-azabicyclo[3.3.0]-7-octene
Formula: C19H17NO3S
CAS: 77541-42-5
Molecular weight: 339
m/z	intensity
39	270
45	100
50	210
51	560
52	140
53	440
74	40
76	70
77	999
78	250
81	630
82	60
86	50
104	810
105	450
106	130
114	140
209	200
210	40
321	50
