Mass Spectrum: 1H-Cyclopropa[3,4]benz[1,2-e]azulene-5,7b,9,9a-tetrol, 3-[(acetyloxy)methyl]-1a,1b,4,4a,5,7a,8,9-octahydro-1,1,6,8-tetramethyl-, 5,9,9a-triacetate, [1aR-(1a.alpha.,1b.beta.,4a.beta.,5.beta.,7a.alpha.,7b.alpha.,8.alpha.,9.beta.,9a.alpha.)]-
Formula: C28H38O9
CAS: 77550-16-4
Molecular weight: 518
m/z	intensity
12	0
13	0
14	3
15	17
16	1
17	6
18	23
20	0
24	0
25	0
26	2
27	9
28	49
29	30
30	1
31	3
32	9
35	0
36	0
37	0
38	1
39	14
40	3
41	92
42	10
43	999
44	24
45	14
46	0
47	0
48	0
49	0
50	1
51	3
52	2
53	23
54	5
55	88
56	10
57	40
58	5
59	12
60	14
61	9
62	0
63	1
64	0
65	15
66	8
67	61
68	11
69	178
70	14
71	23
72	3
73	7
74	1
75	3
76	1
77	61
78	26
79	136
80	46
81	72
82	14
83	147
84	13
85	24
86	5
87	7
88	1
89	2
90	1
91	130
92	30
93	130
94	23
95	76
96	145
97	31
98	7
99	8
100	3
101	12
102	2
103	17
104	11
105	155
106	40
107	116
108	26
109	61
110	14
111	23
112	14
113	9
114	13
115	33
116	19
117	60
118	28
119	102
120	79
121	118
122	83
123	46
124	17
125	74
126	9
127	17
128	38
129	74
130	65
131	175
132	49
133	65
134	28
135	44
136	49
137	30
138	24
139	17
140	5
141	30
142	58
143	176
144	90
145	104
146	33
147	60
148	35
149	53
150	14
151	26
152	21
153	23
154	13
155	53
156	54
157	145
158	51
159	74
160	37
161	65
162	23
163	21
164	17
165	31
166	15
167	33
168	15
169	40
170	28
171	60
172	100
173	83
174	46
175	51
176	23
177	21
178	12
179	24
180	21
181	40
182	40
183	100
184	38
185	60
186	24
187	33
188	23
189	37
190	33
191	28
192	14
193	24
194	21
195	86
196	40
197	47
198	26
199	141
200	127
201	46
202	17
203	30
204	15
205	13
206	11
207	37
208	26
209	49
210	37
211	56
212	24
213	38
214	17
215	24
216	21
217	38
218	19
219	15
220	12
221	28
222	33
223	49
224	15
225	38
226	23
227	53
228	23
229	17
230	11
231	12
232	17
233	12
234	12
235	56
236	19
237	28
238	17
239	33
240	26
241	24
242	21
243	21
244	10
245	19
246	7
247	10
248	7
249	30
250	63
251	38
252	15
253	49
254	15
255	30
256	12
257	11
258	12
259	19
260	28
261	21
262	10
263	58
264	17
265	17
266	7
267	31
268	44
269	23
270	11
271	11
272	6
273	4
274	3
275	4
276	15
277	38
278	146
279	74
280	21
281	28
282	11
283	12
284	4
285	19
286	9
287	24
288	6
289	2
290	1
291	6
292	5
293	5
294	6
295	70
296	120
297	53
298	14
299	7
300	4
301	3
302	1
303	2
304	1
305	4
306	2
307	2
308	1
309	4
310	17
311	8
312	4
313	30
314	19
315	7
316	2
317	2
318	1
319	2
320	14
321	15
322	5
323	10
324	3
325	6
326	2
327	4
328	21
329	7
330	2
331	2
332	3
333	1
334	0
335	0
336	1
337	8
338	120
339	47
340	17
341	8
342	3
343	2
344	1
345	1
346	1
347	1
348	0
349	0
350	0
351	0
352	1
353	2
354	3
355	46
356	86
357	24
358	7
359	1
360	0
361	0
362	0
363	0
364	0
365	5
366	1
367	0
368	0
369	2
370	5
371	3
372	2
373	7
374	7
375	1
376	0
377	0
378	0
379	7
380	17
381	7
382	2
383	4
384	1
385	1
386	0
387	1
388	1
389	0
390	0
391	0
394	0
395	0
396	0
397	4
398	67
399	24
400	8
401	2
402	0
403	0
404	0
405	0
407	0
408	0
412	1
413	4
414	2
415	16
416	19
417	6
418	1
419	0
425	0
426	0
427	0
429	1
430	1
431	1
432	0
433	0
434	0
440	12
441	4
442	1
443	1
444	0
445	0
446	0
447	0
456	0
457	0
458	23
459	21
460	6
461	1
462	0
467	0
472	0
473	1
474	1
475	0
476	0
477	0
480	0
482	0
490	0
491	0
500	2
501	1
502	0
518	2
519	0
520	0
