Mass Spectrum: 2,4,6,8-Tetradecatetraenoic acid, 9a-(acetyloxy)-1a,1b,4,4a,5,7a,7b,8,9,9a-decahydro-4a,7b-dihydroxy-3-(hydroxymethyl)-1,1,6,8-tetramethyl-5-oxo-1H-cyclopropa[3,4]benz[1,2-e]azulen-9-yl ester, [1aR-(1a.alpha.,1b.beta.,4a.beta.,7a.alpha.,7b.alpha.,
Formula: C36H48O8
CAS: 77550-14-2
Molecular weight: 608
m/z	intensity
12	2
13	0
15	14
16	0
17	7
18	22
19	1
26	11
27	85
28	42
29	192
30	7
31	42
32	2
36	5
37	2
38	7
39	100
40	24
41	642
42	57
43	857
44	50
45	32
46	2
47	2
49	1
50	12
51	35
52	28
53	257
54	50
55	999
56	78
57	285
58	20
59	314
60	17
61	8
62	2
63	12
64	6
65	107
66	50
67	428
68	64
69	714
70	85
71	235
72	29
73	57
74	8
75	17
76	9
77	264
78	321
79	428
80	100
81	500
82	107
83	785
84	64
85	114
86	25
87	15
88	4
89	16
90	11
91	857
92	142
93	357
94	107
95	571
96	128
97	178
98	35
99	64
100	9
101	20
102	13
103	100
104	78
105	571
106	107
107	642
108	128
109	428
110	78
111	121
112	71
113	37
114	18
115	135
116	64
117	285
118	78
119	428
120	121
121	428
122	164
123	571
124	157
125	678
126	71
127	150
128	78
129	150
130	53
131	357
132	100
133	535
134	128
135	357
136	157
137	142
138	78
139	128
140	31
141	71
142	64
143	171
144	64
145	264
146	100
147	278
148	100
149	221
150	85
151	107
152	57
153	71
154	32
155	64
156	42
157	157
158	92
159	314
160	107
161	250
162	100
163	142
164	57
165	92
166	42
167	92
168	64
169	78
170	57
171	178
172	121
173	335
174	128
175	392
176	142
177	392
178	71
179	92
180	42
181	64
182	42
183	85
184	42
185	135
186	78
187	200
188	85
189	178
190	78
191	128
192	57
193	64
194	50
195	78
196	50
197	121
198	100
199	185
200	107
201	178
202	257
203	714
204	150
205	78
206	42
207	64
208	85
209	92
210	128
211	157
212	71
213	164
214	100
215	192
216	107
217	107
218	57
219	78
220	300
221	107
222	78
223	114
224	57
225	121
226	50
227	214
228	142
229	92
230	39
231	71
232	43
233	78
234	35
235	64
236	39
237	78
238	40
239	114
240	50
241	121
242	57
243	57
244	50
245	78
246	43
247	50
248	29
249	64
250	33
251	114
252	50
253	100
254	57
255	78
256	28
257	48
258	25
259	92
260	57
261	45
262	42
263	57
264	44
265	121
266	64
267	171
268	64
269	100
270	42
271	57
272	26
273	78
274	22
275	45
276	21
277	57
278	23
279	71
280	35
281	92
282	128
283	142
284	57
285	71
286	24
287	57
288	25
289	25
290	12
291	22
292	92
293	242
294	114
295	128
296	33
297	57
298	33
299	78
300	71
301	47
302	20
303	24
304	12
305	11
306	7
307	10
308	10
309	92
310	428
311	857
312	257
313	107
314	28
315	28
316	11
317	17
318	15
319	8
320	4
321	8
322	6
323	16
324	10
325	20
326	17
327	135
328	364
329	578
330	142
331	30
332	8
333	5
334	5
335	15
336	6
337	30
338	13
339	23
340	10
341	21
342	12
343	15
344	9
345	33
346	31
347	34
348	11
349	7
350	4
351	12
352	17
353	40
354	17
355	64
356	20
357	12
358	7
359	7
360	6
361	5
362	4
363	7
364	3
365	6
366	7
367	20
368	12
369	17
370	40
371	92
372	31
373	25
374	7
375	9
376	5
377	5
378	3
379	5
380	4
381	10
382	5
383	8
384	10
385	18
386	10
387	20
388	31
389	964
390	257
391	50
392	13
393	10
394	5
395	7
396	5
397	6
398	6
399	12
400	12
401	9
402	10
403	6
404	3
405	7
406	6
407	9
408	6
409	235
410	85
411	26
412	9
413	6
414	6
415	5
416	5
417	5
418	4
419	4
420	5
421	9
422	7
423	11
424	15
425	20
426	11
427	235
428	85
429	21
430	8
431	5
432	3
433	3
434	17
435	8
436	9
437	7
438	8
439	10
440	15
441	12
442	42
443	25
444	9
445	78
446	25
447	6
448	2
449	2
450	3
451	8
452	27
453	10
454	30
455	15
456	19
457	11
458	13
459	7
460	114
461	41
462	9
463	3
464	2
465	2
466	2
467	2
468	5
469	8
470	10
471	7
472	8
473	5
474	5
475	4
476	3
477	4
478	2
479	3
480	2
481	1
482	2
483	2
484	5
485	2
486	9
487	5
488	4
489	2
490	4
491	2
492	2
493	4
494	7
495	3
496	2
497	2
498	2
499	3
500	3
501	3
502	7
503	2
504	11
505	4
506	2
507	2
508	1
509	1
510	1
511	1
512	28
513	11
514	4
515	2
516	2
517	1
518	2
519	12
520	10
521	5
522	5
523	4
524	2
525	1
526	1
527	1
528	2
529	2
530	38
531	15
532	5
533	2
534	1
535	1
536	2
537	2
538	1
539	1
540	2
541	1
542	0
544	0
545	0
546	2
547	6
548	19
549	14
550	5
551	2
552	1
553	0
554	2
555	1
556	1
557	1
558	1
559	1
560	0
561	0
562	2
563	1
564	7
565	5
566	5
567	2
568	1
569	1
570	1
571	0
572	3
573	1
574	1
575	1
576	5
577	7
578	3
579	1
580	1
581	0
582	5
583	3
584	1
585	0
586	0
587	0
588	0
589	1
590	27
591	14
592	5
593	2
594	0
595	0
604	2
605	3
606	2
607	1
608	64
609	29
610	8
611	2
612	0
