Mass Spectrum: 4-Piperidinepropanoic acid, 1-benzoyl-3-[2-(benzoyloxy)ethyl]-, ethyl ester
Formula: C26H31NO5
CAS: 77572-70-4
Molecular weight: 437
m/z	intensity
36	12
37	7
38	13
39	66
40	13
41	119
42	103
43	52
44	34
45	25
46	4
48	4
49	8
50	50
51	95
52	20
53	32
54	15
55	97
56	36
57	37
58	6
59	9
60	9
61	6
62	6
63	7
65	28
66	7
67	32
68	22
69	23
70	14
71	10
72	8
73	17
74	15
75	13
76	35
77	398
78	45
79	20
80	19
81	21
82	51
83	28
84	23
85	13
86	5
88	7
89	9
91	23
92	6
93	22
94	11
95	18
96	18
97	9
98	8
99	5
100	7
101	7
102	10
104	17
105	999
106	99
107	14
108	12
109	9
110	93
111	13
112	26
114	4
115	8
116	11
117	8
118	5
119	6
120	8
122	49
123	14
124	13
125	5
126	5
127	6
128	10
129	9
132	6
133	4
134	12
135	5
138	10
139	5
140	6
141	5
144	5
146	9
147	8
148	11
149	40
150	7
152	15
154	18
155	7
156	5
157	6
159	7
160	11
161	5
164	7
166	11
167	9
168	6
174	7
177	6
180	7
182	8
184	6
186	23
187	6
188	38
189	8
192	7
196	4
198	5
199	10
200	9
202	11
206	6
210	15
211	9
212	6
214	12
215	5
221	6
223	5
228	12
230	36
232	13
234	20
235	12
242	5
246	7
248	21
251	5
256	4
261	5
262	11
263	7
274	10
288	70
289	19
290	31
291	8
302	7
314	6
316	20
317	7
332	20
333	12
334	88
335	108
336	20
337	5
392	14
393	5
436	22
437	35
438	8
