Mass Spectrum: Butanal, 3,3-dimethyl-2-oxo-, hemihydrate
Formula: C6H10O2
CAS: 77572-68-0
Molecular weight: 114
m/z	intensity
29	999
38	50
39	570
40	60
41	940
42	140
43	150
55	90
57	940
68	100
85	650
86	30
113	3
114	2
