Mass Spectrum: Cyclopropa[3',4']benz[1',2':4,5]azuleno[1,8a-d]-1,3-dioxole-5b,7,7a-triol, 3a,5a,6,7,8,8a,8b,11-octahydro-10-(hydroxymethyl)-2,2,4,6,8,8-hexamethyl-, 7,7a-diacetate, [3aS-(3a.alpha.,5a.alpha.,5b.alpha.,6.alpha.,7.beta.,7a.alpha.,8a.alpha.,8b.beta.
Formula: C27H38O8
CAS: 77573-38-7
Molecular weight: 490
m/z	intensity
12	3
13	17
14	53
15	5
16	5
17	39
18	1
24	0
25	1
26	5
27	28
28	292
29	64
30	3
31	32
32	7
33	0
34	0
36	0
37	4
38	7
39	75
40	12
41	257
42	35
43	999
44	92
45	35
46	2
47	1
48	0
49	1
50	6
51	25
52	3
53	35
54	16
55	132
56	14
57	82
58	9
59	67
60	60
61	53
62	2
63	15
64	7
65	96
66	114
67	132
68	13
69	239
70	35
71	21
72	3
73	10
74	9
75	10
76	2
77	92
78	32
79	114
80	35
81	89
82	35
83	571
84	35
85	71
86	11
87	7
88	5
89	12
90	5
91	246
92	60
93	239
94	200
95	428
96	171
97	64
98	16
99	16
100	7
101	46
102	10
103	53
104	32
105	225
106	50
107	235
108	135
109	235
110	32
111	110
112	32
113	21
114	28
115	92
116	85
117	110
118	53
119	178
120	132
121	253
122	250
123	242
124	92
125	189
126	21
127	57
128	100
129	185
130	92
131	350
132	110
133	192
134	135
135	232
136	178
137	132
138	71
139	82
140	35
141	100
142	121
143	267
144	89
145	92
146	57
147	135
148	57
149	78
150	32
151	117
152	57
153	50
154	28
155	60
156	57
157	107
158	71
159	160
160	110
161	157
162	82
163	121
164	57
165	110
166	35
167	64
168	25
169	60
170	53
171	139
172	171
173	271
174	96
175	139
176	89
177	85
178	46
179	75
180	46
181	75
182	42
183	110
184	57
185	96
186	103
187	146
188	89
189	164
190	110
191	103
192	67
193	71
194	64
195	103
196	50
197	128
198	125
199	228
200	114
201	96
202	46
203	67
204	39
205	53
206	39
207	57
208	42
209	85
210	53
211	178
212	100
213	110
214	57
215	121
216	96
217	167
218	100
219	50
220	46
221	50
222	35
223	82
224	50
225	132
226	125
227	103
228	60
229	107
230	57
231	39
232	21
233	53
234	25
235	85
236	50
237	110
238	67
239	103
240	46
241	110
242	60
243	207
244	100
245	42
246	25
247	42
248	28
249	71
250	96
251	132
252	53
253	157
254	92
255	71
256	42
257	42
258	25
259	39
260	21
261	71
262	25
263	71
264	125
265	121
266	128
267	107
268	82
269	128
270	75
271	64
272	28
273	21
274	13
275	28
276	92
277	71
278	32
279	125
280	42
281	142
282	110
283	107
284	142
285	60
286	32
287	39
288	21
289	15
290	7
291	10
292	28
293	82
294	464
295	221
296	71
297	100
298	35
299	39
300	28
301	75
302	32
303	35
304	46
305	12
306	11
307	8
308	21
309	25
310	50
311	142
312	500
313	182
314	50
315	25
316	11
317	7
318	8
319	7
320	5
321	8
322	3
323	21
324	57
325	28
326	53
327	53
328	35
329	78
330	64
331	21
332	8
333	4
334	3
335	5
336	16
337	28
338	10
339	18
340	12
341	39
342	60
343	28
344	32
345	14
346	8
347	11
348	3
349	2
350	4
351	5
352	75
353	46
354	192
355	85
356	28
357	18
358	15
359	8
360	7
361	6
362	5
363	1
364	1
365	1
366	2
367	2
368	16
369	28
370	275
371	146
372	464
373	121
374	25
375	5
376	4
377	1
378	2
379	1
380	1
381	1
382	2
383	5
384	28
385	14
386	46
387	46
388	39
389	25
390	10
391	2
392	2
393	1
394	2
395	1
396	12
397	7
398	3
399	5
400	3
401	14
402	25
403	10
404	7
405	3
406	2
407	1
408	1
409	0
410	2
411	2
412	428
413	121
414	117
415	53
416	12
417	5
418	2
419	2
420	1
421	1
422	1
423	0
424	1
425	0
426	2
427	2
428	21
429	23
430	235
431	157
432	67
433	14
434	3
435	1
436	0
437	0
438	0
439	0
440	0
441	0
442	0
443	1
444	21
445	28
446	17
447	17
448	6
449	3
450	1
451	0
452	0
454	1
455	1
456	1
457	2
458	2
459	1
460	1
461	9
462	5
463	1
464	1
465	0
466	0
467	0
468	0
469	0
470	2
471	0
472	60
473	25
474	5
475	46
476	12
477	3
478	1
479	0
480	0
481	0
482	0
484	0
486	1
487	1
488	5
489	2
490	110
491	32
492	6
493	1
