Mass Spectrum: 1b,4a-Epoxy-2H-cyclopenta[3,4]cyclopropa[8,9]cycloundec[1,2-b]oxiren-5(6H)-one, 7-(acetyloxy)decahydro-2,9,10-trihydroxy-3,6,8,8,10a-pentamethyl-
Formula: C22H32O8
CAS: 77573-08-1
Molecular weight: 424
m/z	intensity
12	4
13	4
14	13
15	38
16	4
17	6
18	18
19	8
20	0
22	0
24	1
25	4
26	21
27	121
28	175
29	212
30	10
31	62
32	18
33	0
36	1
37	6
38	12
39	157
40	40
41	484
42	72
43	999
44	66
45	151
46	3
47	9
48	0
49	1
50	10
51	35
52	20
53	139
54	35
55	254
56	54
57	242
58	66
59	103
60	121
61	17
62	3
63	12
64	5
65	66
66	32
67	181
68	27
69	278
70	38
71	103
72	23
73	66
74	35
75	5
76	1
77	139
78	28
79	145
80	54
81	169
82	60
83	193
84	47
85	290
86	33
87	90
88	6
89	5
90	2
91	109
92	23
93	151
94	35
95	230
96	139
97	309
98	303
99	90
100	26
101	90
102	7
103	12
104	6
105	58
106	15
107	96
108	78
109	709
110	157
111	272
112	47
113	127
114	21
115	19
116	13
117	14
118	6
119	46
120	30
121	121
122	96
123	290
124	109
125	175
126	78
127	109
128	35
129	20
130	7
131	15
132	7
133	33
134	19
135	157
136	127
137	442
138	375
139	230
140	84
141	254
142	27
143	14
144	6
145	24
146	11
147	54
148	30
149	84
150	47
151	163
152	224
153	145
154	96
155	51
156	19
157	18
158	6
159	22
160	12
161	56
162	27
163	127
164	60
165	145
166	39
167	78
168	78
169	38
170	33
171	13
172	6
173	25
174	14
175	48
176	27
177	66
178	36
179	96
180	78
181	587
182	96
183	34
184	7
185	12
186	7
187	19
188	9
189	44
190	23
191	61
192	72
193	50
194	23
195	21
196	13
197	50
198	20
199	23
200	7
201	20
202	9
203	34
204	18
205	35
206	15
207	38
208	26
209	43
210	48
211	14
212	4
213	11
214	7
215	18
216	8
217	29
218	12
219	29
220	15
221	33
222	10
223	14
224	6
225	18
226	10
227	18
228	6
229	12
230	7
231	27
232	12
233	20
234	13
235	15
236	10
237	38
238	10
239	7
240	3
241	9
242	6
243	16
244	7
245	19
246	6
247	16
248	8
249	30
250	12
251	9
252	3
253	6
254	3
255	7
256	2
257	8
258	3
259	12
260	14
261	42
262	21
263	14
264	4
265	7
266	6
267	6
268	1
269	4
270	2
271	6
272	3
273	6
274	2
275	9
276	5
277	11
278	18
279	28
280	7
281	3
282	2
283	4
284	1
285	7
286	2
287	9
288	4
289	8
290	7
291	7
292	2
293	4
294	2
295	12
296	9
297	2
298	0
299	6
300	4
301	4
302	1
303	9
304	4
305	7
306	2
307	2
308	2
309	1
310	0
311	1
312	0
313	2
314	1
315	0
316	0
317	11
318	8
319	4
320	2
321	4
322	1
323	1
324	0
325	0
326	0
327	0
328	2
329	2
330	2
331	7
332	2
333	1
334	1
335	2
336	4
337	9
338	2
339	0
344	0
345	0
346	21
347	8
348	3
349	4
350	1
351	2
352	0
354	0
359	0
360	0
361	0
362	1
363	1
364	18
365	10
366	4
367	1
368	0
372	0
373	0
374	0
376	0
377	2
378	2
379	0
380	0
381	0
382	0
388	0
389	0
390	0
391	0
392	0
393	1
394	0
395	0
396	0
404	0
406	3
407	6
408	1
409	0
423	0
424	9
425	1
