Mass Spectrum: Benz[e]azulen-3(3aH)-one, 4,6a,7,8,9,10,10a,10b-octahydro-3a,8,10a-trihydroxy-5-(hydroxymethyl)-2,10-dimethyl-, [3aR-(3a.alpha.,6a.alpha.,8.beta.,10.beta.,10a.beta.,10b.beta.)]-
Formula: C17H24O5
CAS: 77573-30-9
Molecular weight: 308
m/z	intensity
12	1
13	0
15	40
16	3
17	6
18	17
24	1
25	2
26	27
27	343
28	15
29	189
30	10
31	248
32	15
35	0
36	2
37	8
38	23
39	452
40	94
41	970
42	108
43	999
44	89
45	68
46	2
47	13
48	2
49	2
50	32
51	160
52	116
53	875
54	189
55	554
56	110
57	277
58	119
59	145
60	21
61	9
62	10
63	58
64	33
65	321
66	160
67	386
68	71
69	416
70	51
71	350
72	27
73	30
74	21
75	19
76	18
77	554
78	160
79	591
80	167
81	416
82	525
83	291
84	95
85	40
86	8
87	23
88	7
89	35
90	18
91	635
92	136
93	313
94	152
95	394
96	142
97	94
98	54
99	729
100	48
101	84
102	30
103	90
104	51
105	350
106	160
107	379
108	248
109	839
110	270
111	306
112	160
113	45
114	13
115	175
116	75
117	160
118	52
119	147
120	103
121	204
122	102
123	127
124	145
125	79
126	16
127	59
128	135
129	147
130	71
131	182
132	77
133	189
134	132
135	218
136	78
137	204
138	175
139	109
140	27
141	94
142	48
143	113
144	61
145	306
146	116
147	189
148	137
149	127
150	75
151	130
152	70
153	52
154	23
155	62
156	93
157	105
158	175
159	313
160	124
161	175
162	140
163	306
164	111
165	136
166	80
167	51
168	57
169	45
170	29
171	122
172	81
173	226
174	150
175	167
176	112
177	102
178	71
179	100
180	57
181	510
182	78
183	96
184	65
185	128
186	63
187	86
188	62
189	91
190	64
191	481
192	104
193	58
194	23
195	35
196	20
197	58
198	59
199	118
200	47
201	106
202	58
203	72
204	51
205	36
206	60
207	35
208	56
209	817
210	114
211	130
212	38
213	75
214	26
215	51
216	78
217	59
218	55
219	45
220	18
221	23
222	21
223	20
224	11
225	37
226	45
227	36
228	26
229	57
230	25
231	47
232	27
233	19
234	8
235	10
236	12
237	8
238	4
239	41
240	7
241	46
242	27
243	36
244	69
245	29
246	32
247	25
248	9
249	6
250	2
251	1
252	0
253	8
254	50
255	19
256	10
257	30
258	10
259	32
260	30
261	20
262	68
263	11
264	2
265	1
266	0
267	0
268	0
269	0
270	5
271	13
272	233
273	48
274	26
275	10
276	3
277	3
278	3
279	2
280	2
281	0
282	0
283	0
284	2
285	0
286	1
287	0
288	8
289	3
290	350
291	62
292	16
293	2
294	1
296	0
297	0
298	0
301	0
304	1
306	2
307	0
308	24
309	4
310	1
