Mass Spectrum: Cyclopropa[3',4']benz[1',2':4,5]azuleno[1,8a-d]-1,3-dioxole-5b,7,7a-triol, 10-[(acetyloxy)methyl]-3a,5a,6,7,8,8a,8b,11-octahydro-2,2,4,6,8,8-hexamethyl-, 7,7a-diacetate, [3aS-(3a.alpha.,5a.alpha.,5b.alpha.,6.alpha.,7.beta.,7a.alpha.,8a.alpha.,8b.b
Formula: C29H40O9
CAS: 77573-27-4
Molecular weight: 532
m/z	intensity
12	2
13	3
14	13
15	76
16	5
17	1
18	7
24	0
25	2
26	5
27	24
28	106
29	55
30	1
31	11
32	10
36	0
37	2
38	4
39	48
40	15
41	195
42	44
43	999
44	60
45	58
46	0
47	0
49	0
50	2
51	13
52	8
53	55
54	7
55	118
56	11
57	76
58	27
59	76
60	42
61	13
62	1
63	7
64	3
65	60
66	100
67	106
68	10
69	461
70	29
71	20
72	1
73	7
74	2
75	2
76	2
77	106
78	33
79	165
80	31
81	61
82	17
83	402
84	24
85	76
86	8
87	4
88	0
89	5
90	4
91	201
92	49
93	124
94	242
95	236
96	82
97	28
98	5
99	7
100	4
101	19
102	6
103	30
104	18
105	195
106	40
107	118
108	76
109	124
110	16
111	61
112	25
113	12
114	23
115	53
116	30
117	71
118	36
119	118
120	71
121	136
122	153
123	130
124	34
125	124
126	13
127	26
128	58
129	88
130	52
131	130
132	51
133	94
134	36
135	82
136	60
137	36
138	16
139	31
140	9
141	41
142	71
143	165
144	65
145	94
146	56
147	118
148	47
149	71
150	26
151	130
152	50
153	36
154	20
155	53
156	55
157	112
158	60
159	142
160	82
161	100
162	43
163	71
164	28
165	54
166	22
167	50
168	19
169	44
170	46
171	136
172	112
173	130
174	44
175	65
176	39
177	45
178	21
179	47
180	31
181	44
182	30
183	76
184	41
185	61
186	44
187	65
188	65
189	76
190	65
191	47
192	28
193	40
194	71
195	61
196	28
197	88
198	100
199	207
200	94
201	50
202	26
203	31
204	27
205	26
206	15
207	49
208	34
209	55
210	37
211	112
212	49
213	43
214	23
215	56
216	27
217	65
218	39
219	26
220	17
221	37
222	26
223	55
224	28
225	82
226	76
227	49
228	27
229	33
230	13
231	23
232	24
233	32
234	15
235	71
236	44
237	45
238	37
239	42
240	17
241	44
242	30
243	94
244	46
245	17
246	21
247	23
248	27
249	41
250	82
251	88
252	26
253	55
254	34
255	27
256	14
257	15
258	13
259	37
260	37
261	32
262	14
263	21
264	12
265	52
266	82
267	47
268	26
269	44
270	20
271	30
272	15
273	7
274	4
275	23
276	94
277	60
278	31
279	65
280	14
281	30
282	13
283	33
284	42
285	24
286	39
287	13
288	8
289	6
290	2
291	7
292	15
293	54
294	207
295	106
296	29
297	18
298	7
299	6
300	4
301	17
302	6
303	6
304	2
305	1
306	14
307	5
308	5
309	7
310	11
311	65
312	76
313	36
314	11
315	4
316	2
317	2
318	2
319	5
320	5
321	5
322	2
323	4
324	6
325	6
326	28
327	13
328	5
329	20
330	10
331	4
332	1
333	0
334	1
335	4
336	37
337	29
338	8
339	12
340	2
341	4
342	2
343	7
344	8
345	3
346	13
347	3
348	2
349	0
350	0
351	1
352	49
353	30
354	136
355	65
356	14
357	3
358	1
359	1
360	1
361	0
362	0
363	0
365	0
366	0
367	0
368	2
369	11
370	21
371	30
372	37
373	10
374	2
375	0
376	0
378	1
379	7
380	2
381	1
382	0
383	1
384	8
385	3
386	11
387	17
388	8
389	2
390	1
391	0
393	1
394	21
395	9
396	26
397	17
398	4
399	2
400	1
401	0
402	0
403	0
410	1
411	20
412	443
413	136
414	100
415	27
416	5
417	0
426	0
427	0
428	3
429	7
430	42
431	14
432	4
433	1
438	0
439	1
440	0
443	2
444	1
445	0
446	0
454	26
455	7
456	18
457	11
458	2
459	0
470	0
471	0
472	124
473	76
474	22
475	4
476	0
486	0
487	0
488	1
489	1
490	0
514	8
515	2
516	0
517	7
518	2
519	0
532	15
533	4
534	1
