Mass Spectrum: 2-Butenoic acid, 2-methyl-, 1,1a,1b,4,4a,5,7a,7b,8,9-decahydro-4a,7b-dihydroxy-3-(hydroxymethyl)-1,1,6,8-tetramethyl-5-oxo-9aH-cyclopropa[3,4]benz[1,2-e]azulene-9,9a-diyl ester, [1aR-[1a.alpha.,1b.beta.,4a.beta.,7a.alpha.,7b.alpha.,8.alpha.,9.beta
Formula: C30H40O8
CAS: 77573-09-2
Molecular weight: 528
m/z	intensity
14	0
15	0
16	1
17	0
24	0
25	0
26	8
27	21
28	16
29	129
30	3
31	16
37	3
38	11
39	104
40	11
41	33
42	7
43	57
44	1
45	31
46	0
47	0
48	0
49	2
50	12
51	21
52	19
53	111
54	74
55	867
56	32
57	15
58	2
59	3
60	0
61	0
62	2
63	9
64	2
65	23
66	9
67	19
68	4
69	45
70	4
71	4
72	0
73	2
74	2
75	3
76	2
77	45
78	15
79	30
80	7
81	17
82	38
83	999
84	89
85	17
86	1
87	1
88	0
89	4
90	1
91	60
92	10
93	18
94	7
95	25
96	6
97	3
98	1
99	4
100	15
101	58
102	6
103	11
104	6
105	30
106	7
107	24
108	7
109	49
110	15
111	10
112	3
113	1
114	0
115	22
116	8
117	20
118	5
119	16
120	6
121	26
122	8
123	12
124	8
125	4
126	1
127	8
128	20
129	17
130	7
131	18
132	10
133	16
134	7
135	10
136	6
137	9
138	9
139	8
140	2
141	13
142	10
143	14
144	7
145	22
146	9
147	19
148	8
149	12
150	7
151	10
152	10
153	9
154	3
155	9
156	5
157	14
158	11
159	25
160	11
161	21
162	17
163	16
164	6
165	18
166	8
167	12
168	9
169	10
170	6
171	16
172	15
173	37
174	12
175	18
176	10
177	16
178	12
179	15
180	6
181	8
182	4
183	9
184	4
185	15
186	9
187	18
188	11
189	18
190	12
191	18
192	7
193	8
194	6
195	12
196	9
197	13
198	11
199	21
200	14
201	15
202	9
203	17
204	8
205	11
206	8
207	18
208	11
209	12
210	12
211	17
212	10
213	29
214	24
215	25
216	11
217	18
218	8
219	12
220	5
221	11
222	9
223	17
224	11
225	21
226	9
227	22
228	15
229	12
230	6
231	20
232	9
233	11
234	4
235	9
236	7
237	11
238	5
239	19
240	11
241	26
242	12
243	18
244	14
245	9
246	6
247	6
248	4
249	15
250	6
251	22
252	12
253	21
254	17
255	12
256	5
257	10
258	10
259	19
260	8
261	7
262	5
263	14
264	11
265	16
266	12
267	25
268	9
269	17
270	10
271	14
272	9
273	8
274	4
275	5
276	3
277	12
278	4
279	16
280	9
281	29
282	41
283	18
284	6
285	12
286	6
287	5
288	3
289	4
290	6
291	11
292	29
293	18
294	6
295	25
296	7
297	14
298	9
299	23
300	28
301	7
302	2
303	3
304	3
305	1
306	2
307	1
308	11
309	45
310	169
311	62
312	14
313	19
314	5
315	4
316	2
317	3
318	1
319	1
320	0
321	1
322	1
323	2
324	3
325	2
326	7
327	53
328	172
329	42
330	9
331	2
332	1
333	1
334	1
335	1
336	0
337	1
338	0
339	0
340	1
341	9
342	5
343	3
344	3
345	19
346	6
347	2
348	0
349	1
350	0
351	1
352	1
353	1
354	1
355	1
356	0
357	0
358	1
359	1
360	1
361	0
362	0
363	0
364	1
365	0
366	0
367	1
368	0
369	1
370	1
371	1
372	1
373	0
374	1
375	1
376	0
377	1
378	0
379	1
380	1
381	1
382	3
383	1
384	0
385	1
386	0
387	0
388	0
389	0
390	0
391	2
392	11
393	4
394	1
395	1
396	0
397	1
398	0
399	1
400	2
401	0
402	0
403	0
404	0
408	1
409	12
410	43
411	17
412	4
413	4
414	1
415	0
416	0
417	0
418	0
419	0
420	0
421	0
422	0
423	0
424	0
425	0
426	2
427	10
428	24
429	154
430	43
431	8
432	1
433	0
434	0
435	0
436	0
437	0
442	0
443	0
444	0
445	13
446	4
447	3
448	1
449	0
450	0
452	0
455	1
456	0
457	0
458	0
459	0
460	0
461	0
464	0
465	0
471	0
473	7
474	2
475	0
476	0
477	0
478	0
479	0
488	0
492	0
493	0
500	0
510	3
511	3
512	0
528	9
529	2
530	0
