Mass Spectrum: 4H-Cyclopropa[5',6']benz[1',2':7,8]azuleno[5,6-b]oxiren-4-one, 8-(acetyloxy)-1,1a,1b,1c,2a,3,3a,6a,6b,7,8,8a-dodecahydro-3a,6b,8a-trihydroxy-2a-(hydroxymethyl)-1,1,5,7-tetramethyl-, [1ar-(1a.alpha.,1b.beta.,1c.alpha.,2a.alpha.,3a.beta.,6a.alpha.,6
Formula: C22H30O8
CAS: 77573-35-4
Molecular weight: 422
m/z	intensity
12	3
13	12
14	33
15	174
16	11
17	12
18	28
19	2
20	0
21	0
24	3
25	5
26	17
27	163
28	190
29	125
30	6
31	57
32	31
33	0
35	0
36	1
37	3
38	12
39	238
40	68
41	730
42	141
43	999
44	66
45	349
46	4
47	3
48	0
49	1
50	14
51	66
52	55
53	571
54	71
55	285
56	36
57	114
58	15
59	36
60	174
61	61
62	5
63	26
64	11
65	130
66	55
67	190
68	38
69	634
70	115
71	60
72	4
73	49
74	7
75	7
76	5
77	253
78	73
79	238
80	52
81	206
82	133
83	999
84	73
85	61
86	6
87	19
88	2
89	11
90	6
91	238
92	39
93	106
94	41
95	269
96	155
97	95
98	39
99	30
100	5
101	61
102	11
103	39
104	19
105	147
106	31
107	163
108	95
109	857
110	104
111	93
112	19
113	20
114	98
115	65
116	23
117	46
118	14
119	82
120	61
121	128
122	57
123	238
124	190
125	190
126	22
127	26
128	39
129	47
130	15
131	46
132	31
133	84
134	42
135	93
136	34
137	115
138	46
139	36
140	14
141	55
142	20
143	36
144	17
145	63
146	30
147	68
148	49
149	104
150	55
151	93
152	34
153	33
154	12
155	30
156	36
157	46
158	31
159	71
160	46
161	95
162	52
163	58
164	39
165	65
166	33
167	49
168	15
169	28
170	23
171	39
172	25
173	65
174	42
175	103
176	34
177	76
178	47
179	130
180	33
181	25
182	15
183	50
184	20
185	71
186	39
187	58
188	34
189	52
190	25
191	42
192	25
193	31
194	15
195	34
196	19
197	53
198	46
199	47
200	23
201	66
202	38
203	61
204	33
205	41
206	23
207	58
208	30
209	36
210	25
211	69
212	30
213	76
214	28
215	53
216	28
217	34
218	14
219	36
220	30
221	34
222	15
223	23
224	17
225	50
226	57
227	49
228	22
229	61
230	38
231	50
232	12
233	17
234	7
235	20
236	9
237	33
238	22
239	74
240	26
241	31
242	17
243	50
244	34
245	23
246	7
247	34
248	17
249	20
250	6
251	15
252	15
253	26
254	9
255	34
256	20
257	69
258	23
259	15
260	7
261	28
262	20
263	26
264	12
265	30
266	12
267	38
268	22
269	22
270	22
271	26
272	9
273	22
274	7
275	23
276	6
277	7
278	5
279	15
280	31
281	22
282	7
283	30
284	14
285	39
286	19
287	11
288	11
289	14
290	17
291	12
292	3
293	17
294	7
295	19
296	7
297	22
298	31
299	17
300	4
301	7
302	4
303	31
304	11
305	3
306	3
307	4
308	47
309	20
310	4
311	17
312	4
313	46
314	14
315	11
316	6
317	9
318	3
319	2
320	1
321	2
322	5
323	2
324	1
325	6
326	68
327	22
328	6
329	6
330	7
331	61
332	14
333	3
334	1
335	5
336	1
337	0
338	0
339	2
340	1
341	2
342	1
343	6
344	22
345	14
346	3
347	1
348	1
349	1
350	1
351	0
352	0
353	2
354	1
355	3
356	1
357	3
358	3
359	1
360	0
361	1
362	1
363	3
364	1
365	0
368	11
369	4
370	1
371	5
372	1
373	20
374	5
375	1
376	1
377	0
384	0
385	0
386	26
387	7
388	1
389	1
390	1
391	2
392	0
400	0
401	0
402	0
403	1
404	19
405	11
406	2
407	0
408	0
418	0
420	0
422	0
