Mass Spectrum: Benzoic acid, 4-bromo-, [5,6-bis(benzoyloxy)-1a,2,5,5a,6,9,10,10a-octahydro-5a-hydroxy-1,1,7,9-tetramethyl-1H-2,8a-methanocyclopenta[a]cyclopropa[e]cyclodecen-4-yl]methyl ester
Formula: C41H39BrO8
CAS: 77573-26-3
Molecular weight: 738
m/z	intensity
12	1
14	1
15	1
16	0
17	0
18	21
24	1
25	5
26	7
27	17
28	25
29	5
31	1
32	3
36	11
37	53
38	64
39	74
40	6
41	11
42	3
43	5
44	15
45	62
46	1
47	1
48	6
49	38
50	217
51	256
52	37
53	23
54	1
55	5
56	0
57	0
59	0
60	7
61	20
62	12
63	19
64	5
65	58
66	14
67	4
68	1
69	2
70	0
71	1
72	5
73	43
74	141
75	141
76	153
77	615
78	67
79	10
80	6
81	10
82	5
83	7
84	1
85	1
86	11
87	10
88	0
89	1
90	1
91	10
92	4
93	8
94	30
95	3
96	1
97	1
98	0
99	0
100	0
101	1
102	1
103	3
104	24
105	999
106	79
107	6
108	1
109	4
110	0
111	3
112	0
113	1
114	0
115	4
116	1
117	2
118	1
119	2
120	1
121	8
122	679
123	53
124	4
125	0
126	0
127	1
128	3
129	4
130	2
131	3
132	1
133	2
134	1
135	3
136	1
137	1
138	0
139	10
140	0
141	3
142	1
143	1
144	1
145	3
146	1
147	2
148	1
149	1
150	0
151	1
152	2
153	2
154	4
155	153
156	19
157	153
158	10
159	2
160	1
161	3
162	1
163	1
164	0
165	4
166	1
167	2
168	1
169	1
170	1
171	2
172	8
173	2
174	8
175	1
176	1
177	0
178	2
179	3
180	1
181	2
182	1
183	358
184	28
185	346
186	26
187	1
188	1
189	3
190	1
191	1
192	1
193	1
194	1
195	2
196	1
197	2
198	2
199	2
200	423
201	34
202	423
203	34
204	2
205	1
206	0
207	2
208	1
209	3
210	1
211	2
212	1
213	2
214	1
215	2
216	1
217	1
218	0
219	1
220	0
221	1
222	1
223	5
224	2
225	3
226	3
227	2
228	1
229	2
230	1
231	0
232	0
233	1
234	0
235	1
236	1
237	3
238	1
239	2
240	1
241	2
242	1
243	3
244	1
245	0
246	0
247	0
248	1
249	1
250	1
251	6
252	5
253	4
254	1
255	2
256	1
257	0
258	0
259	0
260	0
261	1
262	0
263	1
264	0
265	3
266	7
267	3
268	1
269	1
270	0
271	0
275	0
276	2
277	2
278	1
279	6
280	1
281	2
282	1
283	3
284	2
285	0
291	0
292	1
293	3
294	16
295	7
296	2
297	1
298	0
299	0
301	0
304	0
305	0
306	0
307	0
308	0
309	0
310	0
311	5
312	6
313	1
314	0
317	0
318	0
319	0
320	0
321	0
322	0
323	0
324	0
325	0
327	0
329	0
330	0
331	0
332	0
333	0
334	0
336	0
343	0
345	0
346	0
347	0
356	0
357	0
358	0
359	0
360	0
361	0
365	0
370	0
371	0
372	0
373	1
374	0
375	0
376	0
380	0
381	0
382	0
383	0
386	0
387	0
388	1
389	0
390	0
391	0
397	0
398	2
399	1
400	0
401	0
402	0
403	1
404	0
405	0
407	0
409	0
413	0
415	0
416	7
417	3
418	1
419	0
421	0
423	0
425	1
427	0
433	0
434	0
437	1
438	0
439	1
440	0
445	0
447	0
448	0
449	0
450	0
451	0
452	0
453	0
454	0
458	0
459	0
460	0
461	0
462	0
463	0
464	0
465	0
466	1
467	1
468	1
469	0
476	1
477	0
478	1
479	0
480	0
481	0
483	0
484	0
494	3
495	1
496	3
497	2
498	0
502	0
511	0
512	0
513	0
514	0
525	0
527	0
539	1
540	0
565	0
566	0
567	0
568	0
574	0
580	2
581	0
582	1
583	0
588	0
589	0
590	0
598	0
600	0
601	0
616	3
617	1
618	3
619	1
620	0
645	0
658	0
660	0
661	0
662	0
722	0
738	0
740	0
