Mass Spectrum: 4a,7a-Epoxy-5H-cyclopenta[a]cyclopropa[f]cycloundecen-4(1H)-one, 2,7,10-tris(acetyloxy)-1a,2,3,6,7,10,11,11a-octahydro-11-methoxy-1,1,3,6,9-pentamethyl-, [1aR-(1aR*,2R*,3S*,4aR*,6S*,7S*,7aS*,8E,10R*,11R*,11aS*)]-
Formula: C27H38O9
CAS: 77573-15-0
Molecular weight: 506
m/z	intensity
12	1
13	1
14	7
15	38
16	3
17	5
18	15
19	0
22	0
24	0
25	1
26	4
27	29
28	108
29	37
30	2
31	9
32	15
33	0
35	0
36	3
37	1
38	3
39	45
40	10
41	108
42	28
43	999
44	48
45	51
46	1
47	0
48	0
49	0
50	4
51	11
52	6
53	45
54	9
55	78
56	10
57	51
58	9
59	37
60	31
61	7
62	2
63	6
64	2
65	30
66	12
67	55
68	8
69	113
70	11
71	40
72	9
73	63
74	6
75	16
76	2
77	71
78	19
79	74
80	16
81	81
82	20
83	64
84	10
85	68
86	9
87	8
88	2
89	5
90	2
91	108
92	19
93	87
94	19
95	94
96	36
97	83
98	59
99	148
100	15
101	25
102	6
103	18
104	8
105	69
106	17
107	65
108	31
109	128
110	27
111	247
112	108
113	35
114	11
115	30
116	13
117	26
118	9
119	61
120	30
121	123
122	143
123	118
124	36
125	108
126	16
127	44
128	27
129	36
130	13
131	35
132	15
133	49
134	22
135	128
136	94
137	158
138	153
139	128
140	44
141	75
142	31
143	30
144	14
145	46
146	25
147	82
148	43
149	87
150	39
151	95
152	118
153	65
154	24
155	30
156	18
157	28
158	15
159	47
160	22
161	60
162	34
163	108
164	76
165	143
166	33
167	31
168	15
169	24
170	12
171	27
172	18
173	55
174	35
175	75
176	47
177	103
178	34
179	51
180	42
181	128
182	43
183	27
184	12
185	31
186	21
187	45
188	22
189	51
190	33
191	62
192	83
193	51
194	19
195	27
196	13
197	31
198	13
199	30
200	18
201	39
202	25
203	123
204	67
205	87
206	38
207	84
208	27
209	29
210	17
211	22
212	14
213	31
214	19
215	43
216	17
217	35
218	22
219	36
220	17
221	91
222	31
223	35
224	21
225	25
226	11
227	41
228	15
229	26
230	13
231	37
232	22
233	45
234	26
235	21
236	9
237	17
238	11
239	20
240	11
241	25
242	14
243	25
244	11
245	64
246	22
247	23
248	9
249	19
250	32
251	25
252	16
253	29
254	9
255	20
256	11
257	18
258	9
259	14
260	6
261	14
262	16
263	43
264	21
265	16
266	16
267	23
268	12
269	21
270	8
271	15
272	6
273	16
274	9
275	10
276	5
277	9
278	3
279	11
280	4
281	12
282	8
283	24
284	13
285	16
286	6
287	15
288	7
289	8
290	5
291	7
292	7
293	8
294	13
295	13
296	4
297	13
298	6
299	15
300	6
301	17
302	7
303	7
304	3
305	9
306	3
307	3
308	2
309	3
310	10
311	18
312	22
313	19
314	5
315	9
316	4
317	5
318	2
319	2
320	1
321	2
322	2
323	3
324	11
325	4
326	6
327	10
328	6
329	20
330	11
331	7
332	2
333	3
334	2
335	1
336	4
337	1
338	0
339	1
340	1
341	2
342	2
343	14
344	30
345	14
346	3
347	4
348	2
349	1
350	0
351	0
352	7
353	2
354	2
355	3
356	1
357	4
358	3
359	3
360	2
361	4
362	2
363	1
364	0
365	0
366	2
367	0
368	0
369	0
370	2
371	8
372	5
373	4
374	1
375	3
376	2
377	1
378	0
379	0
380	0
381	0
382	0
383	0
384	0
385	1
386	3
387	8
388	4
389	5
390	11
391	2
392	1
393	1
394	1
395	0
396	0
397	0
398	0
399	0
400	0
401	1
402	2
403	7
404	28
405	7
406	2
407	0
408	0
412	0
413	0
414	1
415	2
416	1
417	1
418	1
419	0
420	0
421	0
422	0
425	0
426	0
429	0
430	1
431	4
432	5
433	1
434	0
435	0
444	0
445	0
446	25
447	19
448	5
449	1
450	0
459	0
460	0
461	0
462	1
463	1
464	3
465	0
472	0
473	1
474	0
475	5
476	2
477	0
478	17
479	4
480	1
490	1
491	1
492	1
493	0
504	0
506	831
507	237
508	54
509	7
510	0
