Mass Spectrum: 5H-Cyclopropa[3,4]benz[1,2-e]azulen-5-one, 2,9,9a-tris(acetyloxy)-3-[(acetyloxy)methyl]-1,1a,1b,2,4a,7a,7b,8,9,9a-decahydro-4a,7b-dihydroxy-1,1,6,8-tetramethyl-, [1aR-(1a.alpha.,1b.beta.,2.beta.,4a.beta.,7a.alpha.,7b.alpha.,8.alpha.,9.beta.,9a.alp
Formula: C28H36O11
CAS: 77573-17-2
Molecular weight: 548
m/z	intensity
12	4
13	8
14	36
15	129
16	13
17	7
18	20
19	0
24	3
25	8
26	20
27	58
28	216
29	75
30	3
31	17
32	11
35	0
36	3
37	9
38	17
39	91
40	22
41	145
42	88
43	999
44	100
45	162
46	2
47	1
48	0
49	2
50	19
51	34
52	18
53	101
54	17
55	80
56	8
57	42
58	8
59	17
60	84
61	19
62	9
63	23
64	6
65	44
66	15
67	58
68	11
69	227
70	18
71	9
72	1
73	5
74	6
75	6
76	5
77	96
78	33
79	72
80	14
81	40
82	24
83	216
84	14
85	22
86	4
87	4
88	2
89	11
90	4
91	135
92	20
93	54
94	14
95	55
96	28
97	18
98	7
99	5
100	3
101	10
102	9
103	30
104	11
105	74
106	16
107	43
108	18
109	129
110	18
111	19
112	5
113	6
114	12
115	52
116	20
117	32
118	11
119	36
120	15
121	52
122	20
123	29
124	27
125	48
126	6
127	20
128	44
129	38
130	12
131	24
132	19
133	49
134	19
135	31
136	20
137	25
138	12
139	14
140	5
141	30
142	21
143	27
144	16
145	50
146	21
147	37
148	29
149	61
150	19
151	33
152	20
153	19
154	9
155	21
156	15
157	31
158	23
159	42
160	32
161	52
162	29
163	24
164	15
165	44
166	17
167	24
168	10
169	21
170	11
171	29
172	18
173	32
174	25
175	35
176	14
177	30
178	44
179	25
180	11
181	16
182	10
183	22
184	16
185	44
186	24
187	34
188	19
189	25
190	12
191	17
192	10
193	16
194	7
195	19
196	12
197	30
198	22
199	32
200	15
201	27
202	34
203	27
204	27
205	16
206	9
207	10
208	8
209	22
210	14
211	33
212	23
213	44
214	23
215	25
216	11
217	15
218	8
219	11
220	9
221	16
222	16
223	23
224	16
225	24
226	19
227	25
228	14
229	34
230	17
231	21
232	7
233	15
234	7
235	16
236	10
237	24
238	17
239	38
240	28
241	48
242	18
243	16
244	11
245	20
246	8
247	11
248	5
249	16
250	18
251	35
252	25
253	21
254	9
255	19
256	10
257	29
258	15
259	7
260	17
261	12
262	21
263	25
264	16
265	34
266	12
267	24
268	21
269	24
270	14
271	18
272	8
273	9
274	3
275	12
276	3
277	5
278	6
279	22
280	62
281	32
282	12
283	44
284	21
285	16
286	6
287	5
288	2
289	9
290	34
291	24
292	15
293	28
294	8
295	15
296	8
297	20
298	25
299	16
300	5
301	5
302	8
303	4
304	1
305	1
306	3
307	18
308	118
309	42
310	19
311	16
312	5
313	4
314	2
315	4
316	2
317	3
318	0
319	0
320	0
321	1
322	4
323	4
324	6
325	29
326	44
327	15
328	5
329	3
330	2
331	1
332	0
333	0
334	0
335	1
336	0
337	1
338	1
339	5
340	16
341	9
342	3
343	7
344	4
345	2
346	0
347	0
348	0
349	0
350	29
351	11
352	4
353	6
354	1
355	2
356	1
357	4
358	5
359	2
360	0
361	3
362	1
363	0
366	1
367	3
368	50
369	20
370	5
371	2
372	0
373	1
374	0
375	0
376	0
382	0
383	0
384	2
385	9
386	14
387	4
388	1
389	0
399	1
400	2
401	1
402	1
403	2
404	1
405	0
408	0
409	0
410	25
411	8
412	4
413	2
414	1
415	1
416	1
417	1
418	2
419	0
420	0
426	1
427	2
428	85
429	29
430	7
431	1
432	0
434	0
442	0
444	3
445	4
446	6
447	2
448	0
459	0
460	14
461	3
462	1
463	0
464	0
470	4
471	1
472	1
473	0
476	0
486	1
487	0
488	9
489	1
490	0
518	0
520	0
530	0
548	1
549	0
