Mass Spectrum: Pentanedioic acid, 3-(1,2-diphenylpropylidene)-, monomethyl ester
Formula: C21H22O4
CAS: 77573-37-6
Molecular weight: 338
m/z	intensity
12	4
13	4
14	23
15	15
16	7
17	13
18	44
19	13
20	0
22	1
24	3
25	25
26	186
27	470
28	529
29	264
30	13
31	56
32	50
34	0
35	0
36	4
37	9
38	7
39	13
40	6
41	23
42	111
43	96
44	127
45	843
46	98
47	35
48	1
49	0
50	2
51	7
52	8
53	52
54	19
55	960
56	235
57	31
58	3
59	9
60	10
61	0
62	1
63	17
64	0
65	2
66	0
67	3
68	1
69	2
70	1
71	15
72	215
73	705
74	999
75	37
76	5
77	8
78	6
79	2
80	1
81	2
82	2
83	2
84	0
85	2
86	0
87	0
88	1
89	2
90	0
91	7
92	0
93	0
94	1
95	1
96	1
97	1
98	8
99	9
100	745
101	274
102	19
103	4
104	2
105	15
106	2
107	0
108	0
109	1
110	0
111	0
112	1
113	1
114	1
115	8
116	4
117	2
118	4
119	3
120	0
121	0
122	1
123	1
124	0
125	0
126	0
127	1
128	3
129	3
130	0
131	1
132	0
133	1
134	0
135	0
136	0
137	0
138	0
139	1
140	2
141	3
142	1
143	2
144	1
145	1
146	0
147	0
149	0
150	0
151	0
152	1
153	0
155	0
156	0
157	0
158	1
159	0
160	0
161	0
162	0
163	0
165	2
166	0
167	1
168	1
169	1
170	1
171	0
175	0
176	0
177	0
178	2
179	1
180	0
181	0
182	0
183	0
184	0
185	1
186	10
187	1
188	0
189	2
190	1
191	1
192	3
193	1
194	1
195	0
197	0
199	0
200	0
201	0
202	3
203	4
204	5
205	8
206	2
207	0
210	0
211	0
213	0
214	0
215	1
216	1
217	2
218	3
219	15
220	5
221	4
222	0
223	0
224	0
228	0
229	0
230	0
231	4
232	1
233	1
234	0
235	0
236	0
237	0
238	0
239	0
242	0
245	1
246	5
247	2
248	4
249	1
250	0
252	0
256	1
257	0
258	0
260	0
262	1
263	0
264	3
265	1
266	2
267	0
274	3
275	1
276	0
277	0
278	0
279	0
284	0
292	2
293	2
294	2
295	0
296	0
310	0
320	0
321	0
338	5
339	1
340	0
