Mass Spectrum: 1H-Cyclopropa[3,4]benz[1,2-e]azulene-4a,5,7b,9,9a(1aH)-pentol, 1b,4,5,7a,8,9-hexahydro-3-(hydroxymethyl)-1,1,6,8-tetramethyl-, 9,9a-diacetate, [1aR-(1a.alpha.,1b.beta.,4a.beta.,5.beta.,7a.alpha.,7b.alpha.,8.alpha.,9.beta.,9a.alpha.)]-
Formula: C24H34O8
CAS: 77573-39-8
Molecular weight: 450
m/z	intensity
13	0
15	2
16	1
17	1
18	19
19	0
25	0
26	4
27	4
28	73
29	24
30	0
31	28
32	31
33	0
37	1
38	1
39	40
40	7
41	77
42	22
43	999
44	21
45	57
46	2
47	2
49	0
50	2
51	21
52	7
53	50
54	17
55	210
56	21
57	101
58	8
59	17
60	35
61	31
62	4
63	6
64	3
65	43
66	50
67	101
68	12
69	368
70	33
71	38
72	5
73	14
74	4
75	3
76	3
77	110
78	33
79	126
80	31
81	70
82	35
83	578
84	40
85	68
86	10
87	7
88	2
89	7
90	3
91	210
92	50
93	105
94	110
95	152
96	64
97	42
98	14
99	14
100	4
101	22
102	6
103	26
104	17
105	108
106	35
107	105
108	52
109	91
110	21
111	228
112	70
113	28
114	52
115	56
116	24
117	38
118	15
119	66
120	31
121	124
122	56
123	129
124	35
125	105
126	14
127	17
128	33
129	59
130	28
131	84
132	21
133	57
134	36
135	61
136	57
137	42
138	24
139	40
140	15
141	31
142	24
143	64
144	26
145	70
146	36
147	91
148	35
149	52
150	24
151	84
152	43
153	31
154	15
155	29
156	38
157	54
158	38
159	112
160	75
161	80
162	59
163	61
164	36
165	47
166	26
167	33
168	19
169	36
170	19
171	61
172	59
173	124
174	49
175	80
176	49
177	49
178	28
179	49
180	24
181	49
182	17
183	49
184	26
185	52
186	50
187	84
188	49
189	61
190	38
191	77
192	31
193	45
194	31
195	40
196	17
197	43
198	47
199	114
200	50
201	64
202	29
203	70
204	33
205	35
206	22
207	26
208	19
209	33
210	49
211	114
212	75
213	52
214	21
215	45
216	68
217	82
218	31
219	59
220	21
221	21
222	17
223	42
224	47
225	52
226	33
227	36
228	21
229	66
230	31
231	21
232	8
233	31
234	19
235	22
236	15
237	29
238	22
239	43
240	15
241	38
242	68
243	80
244	36
245	21
246	12
247	17
248	10
249	17
250	12
251	33
252	14
253	28
254	21
255	21
256	17
257	14
258	6
259	15
260	33
261	42
262	10
263	17
264	33
265	28
266	28
267	21
268	12
269	26
270	12
271	15
272	10
273	8
274	5
275	7
276	40
277	19
278	8
279	43
280	12
281	31
282	19
283	24
284	40
285	12
286	5
287	10
288	3
289	5
290	3
291	2
292	7
293	17
294	124
295	43
296	15
297	29
298	8
299	17
300	12
301	17
302	10
303	10
304	3
305	5
306	2
307	2
308	2
309	2
310	15
311	31
312	210
313	63
314	15
315	21
316	5
317	3
318	2
319	2
320	1
321	1
322	1
323	5
324	4
325	3
326	8
327	4
328	17
329	28
330	119
331	33
332	5
333	1
334	0
335	0
336	4
337	2
338	2
339	2
340	1
341	7
342	5
343	3
344	4
345	2
346	3
347	5
348	7
349	2
350	0
351	0
352	1
353	1
354	28
355	9
356	2
357	3
358	1
359	1
360	1
361	3
362	1
363	0
364	0
365	0
366	0
367	0
368	0
369	0
370	5
371	12
372	149
373	36
374	6
375	7
376	1
377	0
378	0
379	0
380	0
381	0
382	0
383	0
384	2
385	1
386	2
387	1
388	4
389	10
390	19
391	22
392	5
393	1
394	0
395	0
396	1
397	0
398	0
399	0
400	1
401	0
402	1
403	0
404	1
405	0
406	1
407	0
408	0
409	0
410	0
411	0
412	0
413	0
414	12
415	2
416	1
417	0
418	0
419	0
420	0
421	0
422	0
423	0
424	0
425	0
426	0
427	0
428	0
429	0
430	1
431	1
432	7
433	2
434	0
435	0
436	0
438	0
440	0
442	0
443	0
444	0
445	0
446	0
448	1
449	0
450	8
451	2
452	0
453	0
