Mass Spectrum: 7H-6,9a-Methano-4H-cyclopenta[9,10]cyclopropa[5,6]cyclodeca[1,2-d]-1,3-dioxin-13-one, 6,6a,7a,8,9,12,12a,12b-octahydro-12,12a-dihydroxy-2,2,7,7,9,11-hexamethyl-, [6R-(6.alpha.,6a.alpha.,7a.alpha.,9.alpha.,9a.alpha.,12.beta.,12a.beta.,12b.alpha.)]-
Formula: C23H32O5
CAS: 77573-43-4
Molecular weight: 388
m/z	intensity
12	5
13	0
15	41
16	2
17	1
18	4
24	1
25	4
26	33
27	294
28	117
29	274
30	13
31	96
32	6
35	5
36	2
37	9
38	39
39	568
40	117
41	999
42	84
43	999
44	50
45	64
46	1
47	7
48	1
49	2
50	41
51	205
52	103
53	568
54	103
55	588
56	43
57	96
58	49
59	588
60	23
61	58
62	17
63	96
64	45
65	431
66	166
67	470
68	45
69	372
70	49
71	58
72	8
73	1
74	9
75	25
76	21
77	784
78	203
79	509
80	90
82	107
83	105
84	17
85	27
86	6
87	11
88	19
89	41
90	21
91	921
92	150
93	686
94	194
95	470
96	152
97	254
98	25
99	7
100	3
101	10
102	29
103	103
104	60
105	372
106	90
107	352
108	105
109	313
110	158
111	105
112	37
113	11
114	5
115	166
116	68
117	121
118	43
119	215
120	127
121	999
122	549
123	313
124	115
125	52
126	17
127	92
128	117
129	103
130	47
131	127
132	45
133	141
134	109
135	235
136	352
137	235
138	254
139	294
140	78
141	70
142	50
143	49
144	43
145	143
146	76
147	254
148	139
149	196
150	109
151	274
152	86
153	62
154	25
155	49
156	29
157	56
158	43
159	125
160	70
161	235
162	294
163	235
164	113
165	100
166	103
167	52
168	105
169	43
170	27
171	68
172	52
173	103
174	72
175	115
176	92
177	133
178	60
179	64
180	72
181	62
182	27
183	37
184	21
185	58
186	39
187	98
188	86
189	156
190	164
191	113
192	68
193	45
194	33
195	43
196	15
197	43
198	29
199	62
200	31
201	62
202	50
203	94
204	31
205	33
206	29
207	94
208	131
209	49
210	17
211	37
212	19
213	62
214	29
215	88
216	58
217	52
218	19
219	52
220	58
221	21
222	7
223	37
224	17
225	35
226	23
227	43
228	25
229	27
230	15
231	17
232	11
233	27
234	19
235	17
236	86
237	94
238	23
239	27
240	13
241	12
242	4
243	5
244	1
245	1
246	4
247	7
248	5
249	58
250	19
251	39
252	10
253	17
254	9
255	41
256	21
257	17
258	4
259	39
260	11
261	31
262	10
263	2
264	1
265	15
266	158
267	52
268	10
269	82
270	25
271	10
272	4
273	7
274	6
275	3
276	1
277	4
278	1
279	21
280	4
281	4
282	5
283	235
284	568
285	82
286	5
287	45
288	11
289	2
290	0
291	0
292	4
293	2
294	23
295	25
296	4
297	29
298	7
299	12
300	11
301	23
302	37
303	5
304	1
305	0
306	0
307	0
308	0
309	1
310	1
311	3
312	117
313	41
314	7
315	5
316	1
317	0
318	0
319	1
320	0
321	0
322	0
323	0
324	0
325	0
326	0
327	1
328	1
329	2
330	137
331	31
332	4
333	0
334	0
335	0
337	0
338	0
339	0
340	0
341	1
342	1
343	0
344	0
345	1
346	0
352	0
353	0
354	0
355	2
356	0
357	0
358	1
359	0
360	1
364	0
365	0
366	0
369	0
370	7
371	2
372	0
373	4
374	1
375	0
384	0
386	1
387	0
388	52
389	11
390	2
391	0
