Mass Spectrum: 5H-Cyclopropa[3,4]benz[1,2-e]azulen-5-one, 3,9,9a-tris(acetyloxy)-3-[(acetyloxy)methyl]-2-chloro-1,1a,1b,2,3,4,4a,7a,7b,8,9,9a-dodecahydro-4a,7b-dihydroxy-1,1,6,8-tetramethyl-, [1aR-(1a.alpha.,1b.beta.,2.alpha.,3.beta.,4a.beta.,7a.alpha.,7b.alpha.
Formula: C28H37ClO11
CAS: 77573-36-5
Molecular weight: 584
m/z	intensity
12	9
13	11
15	250
16	11
17	9
18	27
19	1
24	2
25	7
26	16
27	104
28	55
29	156
30	11
31	42
32	3
35	36
36	197
37	13
38	73
39	156
40	40
41	520
42	135
43	687
44	208
45	166
46	2
47	2
48	0
49	3
50	13
51	48
52	42
53	489
54	46
55	322
56	26
57	177
58	25
59	61
60	125
61	44
62	9
63	27
64	12
65	114
66	44
67	208
68	41
69	812
70	114
71	55
72	7
73	187
74	15
75	7
76	6
77	187
78	53
79	218
80	41
81	135
82	72
83	999
84	93
85	75
86	7
87	9
88	2
89	28
90	7
91	197
92	34
93	114
94	30
95	177
96	84
97	59
98	18
99	17
100	6
101	187
102	16
103	42
104	14
105	145
106	35
107	229
108	197
109	520
110	64
111	70
112	22
113	34
114	145
115	61
116	28
117	50
118	15
119	82
120	35
121	135
122	57
123	145
124	156
125	270
126	30
127	38
128	38
129	53
130	18
131	60
132	46
133	114
134	58
135	125
136	39
137	72
138	36
139	33
140	17
141	60
142	29
143	44
144	20
145	75
146	32
147	81
148	60
149	166
150	61
151	98
152	37
153	41
154	19
155	38
156	92
157	58
158	43
159	87
160	53
161	135
162	56
163	70
164	59
165	98
166	46
167	67
168	23
169	52
170	25
171	54
172	32
173	71
174	38
175	135
176	42
177	101
178	37
179	53
180	23
181	38
182	23
183	83
184	28
185	63
186	37
187	55
188	34
189	55
190	27
191	40
192	25
193	43
194	19
195	50
196	61
197	82
198	47
199	65
200	29
201	85
202	42
203	55
204	22
205	42
206	20
207	33
208	39
209	59
210	32
211	70
212	47
213	92
214	39
215	47
216	20
217	32
218	27
219	53
220	30
221	42
222	27
223	53
224	29
225	58
226	46
227	60
228	23
229	44
230	22
231	33
232	14
233	25
234	15
235	44
236	21
237	61
238	30
239	69
240	42
241	53
242	18
243	34
244	26
245	47
246	20
247	30
248	19
249	41
250	31
251	53
252	38
253	47
254	30
255	60
256	26
257	46
258	22
259	25
260	23
261	45
262	50
263	56
264	22
265	53
266	27
267	71
268	52
269	60
270	28
271	27
272	15
273	23
274	12
275	27
276	12
277	26
278	17
279	48
280	53
281	47
282	17
283	36
284	15
285	36
286	26
287	25
288	12
289	23
290	72
291	80
292	25
293	37
294	13
295	58
296	22
297	54
298	27
299	33
300	13
301	15
302	7
303	20
304	17
305	14
306	20
307	43
308	103
309	106
310	35
311	28
312	12
313	41
314	28
315	19
316	9
317	22
318	7
319	8
320	2
321	11
322	31
323	15
324	14
325	51
326	56
327	55
328	21
329	16
330	15
331	19
332	6
333	12
334	7
335	9
336	6
337	8
338	3
339	12
340	12
341	15
342	6
343	22
344	31
345	19
346	13
347	7
348	3
349	9
350	15
351	39
352	13
353	26
354	9
355	32
356	10
357	8
358	6
359	5
360	2
361	10
362	12
363	10
364	9
365	5
366	3
367	11
368	53
369	71
370	26
371	12
372	10
373	9
374	2
375	2
376	7
377	7
378	3
379	9
380	6
381	6
382	3
383	1
384	2
385	12
386	42
387	28
388	10
389	7
390	2
391	5
392	1
393	6
394	3
395	8
396	2
397	6
398	1
399	1
400	0
401	1
402	1
403	8
404	66
405	29
406	30
407	11
408	3
409	2
410	7
411	87
412	28
413	7
414	3
415	8
416	1
417	0
418	0
419	0
420	1
421	9
422	34
423	13
424	13
425	3
426	1
427	2
428	15
429	21
430	7
431	3
432	0
433	0
434	0
435	0
436	0
437	2
438	1
439	4
440	2
441	1
442	1
443	0
444	0
445	2
446	11
447	17
448	9
449	8
450	2
451	1
452	0
453	1
454	0
455	0
456	0
457	0
459	0
460	1
461	0
462	0
463	1
464	66
465	20
466	27
467	7
468	1
469	0
470	11
471	6
472	1
473	1
474	0
479	0
480	0
481	1
482	9
483	3
484	3
485	0
486	0
487	0
488	3
489	71
490	20
491	3
492	0
493	0
495	0
498	0
499	0
500	0
501	0
504	0
505	1
506	2
507	1
508	0
509	2
510	0
511	0
512	0
523	0
524	9
525	8
526	6
527	3
528	0
530	0
540	0
541	0
542	0
548	1
549	0
566	0
584	0
