Mass Spectrum: 1(2H)-Naphthalenone, 6-acetyloctahydro-8a-methyl-, (4a.alpha.,7.beta.,8a.beta.)-
Formula: C13H20O2
CAS: 77573-53-6
Molecular weight: 208
m/z	intensity
41	424
43	772
53	181
55	455
67	431
81	486
91	292
93	444
95	434
98	669
105	271
109	201
111	999
121	166
123	193
137	264
147	458
151	250
165	276
193	137
208	262
