Mass Spectrum: Butanoic acid, 4-chloro-, 1,1a,1b,4,4a,5,7a,7b,8,9-decahydro-4a,7b-dihydroxy-3-(hydroxymethyl)-1,1,6,8-tetramethyl-5-oxo-9aH-cyclopropa[3,4]benz[1,2-e]azulene-9,9a-diyl ester, [1ar-(1a.alpha.,1b.beta.,4a.beta.,7a.alpha.,7b.alpha.,8.alpha.,9.beta.,
Formula: C28H38Cl2O8
CAS: 77573-10-5
Molecular weight: 572
m/z	intensity
12	6
13	6
14	26
15	38
16	10
17	17
18	76
19	2
20	0
24	3
25	20
26	140
27	399
28	277
29	167
30	17
31	37
32	1
33	0
34	1
35	79
36	329
37	47
38	121
39	484
40	134
41	999
42	582
43	237
44	60
45	198
46	4
47	7
48	8
49	182
50	42
51	97
52	76
53	213
54	33
55	195
56	131
57	91
58	36
59	14
60	865
61	26
62	24
63	70
64	18
65	100
66	30
67	73
68	39
69	487
70	43
71	25
72	2
73	19
74	19
75	51
76	38
77	631
78	79
79	256
80	85
81	70
82	76
83	243
84	17
85	67
86	152
87	85
88	15
89	43
90	13
91	250
92	50
93	91
94	24
95	79
96	40
97	19
98	11
99	10
100	6
101	20
102	26
103	48
104	27
105	999
106	79
107	490
108	41
109	170
110	34
111	38
112	24
113	16
114	19
115	128
116	44
117	55
118	34
119	64
120	30
121	73
122	50
123	76
124	176
125	134
126	18
127	46
128	100
129	73
130	28
131	57
132	23
133	60
134	32
135	48
136	44
137	49
138	33
139	50
140	14
141	67
142	45
143	54
144	26
145	60
146	32
147	55
148	73
149	67
150	29
151	60
152	85
153	60
154	26
155	60
156	28
157	45
158	50
159	97
160	44
161	67
162	35
163	49
164	27
165	115
166	47
167	50
168	28
169	40
170	26
171	50
172	40
173	56
174	29
175	60
176	54
177	112
178	60
179	85
180	36
181	54
182	27
183	39
184	24
185	47
186	37
187	50
188	31
189	67
190	39
191	73
192	33
193	40
194	26
195	57
196	47
197	53
198	32
199	60
200	32
201	32
202	36
203	47
204	46
205	58
206	37
207	34
208	43
209	67
210	38
211	59
212	31
213	58
214	41
215	47
216	25
217	29
218	19
219	26
220	15
221	37
222	97
223	73
224	39
225	50
226	27
227	47
228	36
229	59
230	18
231	39
232	17
233	34
234	17
235	36
236	28
237	34
238	16
239	42
240	55
241	46
242	28
243	18
244	12
245	15
246	12
247	18
248	12
249	54
250	23
251	46
252	28
253	31
254	25
255	22
256	7
257	18
258	12
259	29
260	11
261	18
262	15
263	27
264	28
265	30
266	14
267	43
268	15
269	19
270	12
271	12
272	9
273	9
274	7
275	15
276	20
277	67
278	19
279	48
280	18
281	31
282	46
283	26
284	8
285	15
286	7
287	7
288	5
289	4
290	6
291	12
292	79
293	49
294	32
295	39
296	9
297	14
298	7
299	14
300	25
301	9
302	5
303	6
304	2
305	2
306	2
307	5
308	14
309	20
310	125
311	67
312	23
313	20
314	4
315	4
316	1
317	4
318	8
319	3
320	3
321	3
322	1
323	1
324	1
325	1
326	7
327	21
328	121
329	34
330	15
331	6
332	1
333	1
334	0
335	1
336	0
337	1
338	0
339	0
340	0
341	0
342	0
343	1
344	1
345	9
346	35
347	12
348	12
349	3
350	1
351	0
352	0
353	1
354	0
355	1
356	0
357	0
358	0
359	0
360	0
361	0
362	0
363	6
364	8
365	3
366	3
367	1
368	0
369	0
370	0
371	0
372	0
373	1
374	1
375	0
376	1
377	0
378	0
379	0
380	0
381	1
382	0
383	1
384	0
385	1
386	1
387	1
388	0
389	1
390	0
391	0
392	0
393	0
394	0
395	0
396	3
397	1
398	1
399	1
400	0
401	1
402	0
403	1
404	3
405	1
406	1
407	1
408	0
409	0
412	0
413	0
414	7
415	3
416	3
417	3
418	0
419	1
420	0
421	0
422	1
423	0
424	0
425	0
427	0
430	0
431	1
432	23
433	9
434	10
435	4
436	1
437	0
448	0
449	4
450	7
451	9
452	5
453	3
454	0
455	0
467	0
468	2
469	3
470	2
471	2
472	0
473	0
486	0
510	0
511	0
536	0
554	1
555	0
556	1
557	0
574	0
