Mass Spectrum: 1-tert-Butyl-1-iodotetrachlorocyclotriphosphazene
Formula: C4H9Cl4IN3P3
CAS: 77589-35-6
Molecular weight: 459
m/z	intensity
57	999
146	38
148	25
150	3
240	69
242	67
244	20
246	2
275	13
276	375
277	25
278	458
279	15
280	192
281	5
282	46
283	1
284	3
332	183
333	10
334	292
335	13
336	117
337	6
338	29
339	1
340	4
459	1
461	2
