Mass Spectrum: 5,6-Dihydro-2-(4-tolyl)-4H-1,3-oxazin-5-one
Formula: C11H11NO2
CAS: 77580-69-9
Molecular weight: 189
m/z	intensity
25	24
26	165
27	132
28	49
29	71
30	79
31	50
32	17
36	17
37	29
38	79
39	290
40	49
41	103
42	167
43	29
44	26
45	21
46	4
47	4
49	8
50	109
51	177
52	59
53	49
54	4
55	9
56	13
57	4
58	29
59	12
60	4
61	30
62	77
63	206
64	67
65	469
66	17
67	9
69	4
70	4
71	4
73	4
74	34
75	29
76	32
77	148
78	69
79	9
80	10
83	4
85	8
86	77
87	19
88	15
89	154
90	95
91	694
92	86
99	4
100	4
101	17
102	39
103	51
104	38
105	39
106	4
107	4
115	4
116	107
117	40
118	25
119	999
120	96
128	4
130	81
131	854
132	116
136	15
138	4
146	4
147	4
149	4
159	79
160	25
161	32
162	10
188	69
189	130
190	17
