Mass Spectrum: 1-tert-Butyl-1-bromotetrachlorocyclotriphosphazene
Formula: C4H9BrCl4N3P3
CAS: 77589-29-8
Molecular weight: 411
m/z	intensity
57	999
146	95
148	49
150	10
240	142
242	139
244	40
246	4
275	26
276	514
277	41
278	674
279	26
280	332
281	8
282	64
332	284
333	16
334	351
335	20
336	184
337	11
338	34
339	2
340	2
384	2
411	10
413	20
415	16
417	5
419	1
