Mass Spectrum: Urea, 1-(4-bromophenyl)-3-methyl-3-phenyl-
Formula: C14H13BrN2O
CAS: 77585-87-6
Molecular weight: 304
m/z	intensity
33	7
34	5
35	13
36	41
37	56
38	133
39	256
40	136
41	43
42	29
43	21
44	51
45	20
46	0
49	15
50	143
51	270
52	81
53	23
54	16
55	18
56	12
57	9
58	0
61	35
62	72
63	237
64	167
65	142
66	55
67	9
68	2
69	5
70	3
71	1
73	12
74	40
75	66
76	88
77	652
78	127
79	168
80	23
81	15
82	8
83	6
84	3
86	2
87	6
88	13
89	14
90	167
91	189
92	36
93	35
94	4
95	4
98	3
99	2
100	1
102	1
104	102
106	999
107	793
108	61
109	3
111	1
112	16
113	0
114	4
115	4
116	0
117	15
118	9
119	63
120	10
121	1
127	4
128	2
129	1
130	0
131	2
132	7
134	605
135	50
136	2
139	1
140	5
141	7
142	1
143	29
145	27
146	1
147	1
148	0
149	1
152	3
153	2
155	26
156	1
157	20
158	1
166	3
167	7
168	9
169	53
170	55
171	65
172	47
173	25
180	1
181	1
183	3
196	4
197	59
198	11
199	58
200	7
210	0
212	0
223	1
224	6
225	9
226	5
240	5
302	5
303	10
304	151
305	33
306	151
307	23
308	1
