Mass Spectrum: Urea, 1-methyl-1-phenyl-3-(3-tolyl)-
Formula: C15H16N2O
CAS: 77585-86-5
Molecular weight: 240
m/z	intensity
33	8
34	9
36	4
37	9
38	29
39	138
40	42
41	33
42	18
43	12
44	28
45	1
49	3
50	44
51	156
52	53
53	28
54	9
55	10
56	7
57	7
58	1
61	4
62	13
63	49
64	41
65	130
66	44
67	7
68	2
69	3
70	2
71	2
72	0
74	10
75	9
77	441
78	111
79	124
80	15
81	4
82	2
83	2
84	2
85	0
87	1
88	1
89	12
90	20
91	127
92	17
93	17
94	3
95	2
96	1
97	2
98	1
99	0
101	0
102	3
103	5
104	69
106	781
107	999
108	75
109	4
110	0
111	2
112	3
113	1
115	1
116	1
117	1
118	3
119	37
120	21
121	3
122	0
123	1
124	0
127	0
128	1
129	1
130	0
132	25
133	36
134	174
135	16
136	1
137	0
138	0
139	0
140	1
141	1
143	1
145	1
146	2
147	3
148	1
149	4
152	2
153	0
161	0
163	0
165	0
166	0
167	3
168	1
169	0
170	0
171	2
180	2
181	2
182	1
183	1
184	0
185	0
186	1
188	1
194	0
195	2
196	3
197	1
198	0
199	0
200	1
201	2
207	0
209	0
216	0
218	1
223	1
224	2
225	0
237	3
238	7
239	25
240	295
241	50
242	4
