Mass Spectrum: Indole-3-acetylhydrazine, 3TMS derivative
Formula: C19H35N3OSi3
CAS: 77590-58-0
Molecular weight: 405
m/z	intensity
50	1
51	2
52	1
58	4
59	31
60	3
61	1
65	1
70	1
72	8
73	999
74	104
75	34
76	1
77	12
78	2
79	1
81	1
84	2
85	1
87	1
88	2
89	1
90	1
91	2
98	1
99	2
100	10
101	2
102	9
103	4
104	5
105	16
106	2
107	1
113	1
115	9
116	2
118	1
120	1
127	1
128	3
129	27
130	29
131	3
132	13
133	8
134	2
135	1
142	1
143	2
144	2
145	7
146	14
147	27
148	6
149	2
155	2
156	3
157	2
158	2
160	4
161	1
170	4
171	1
172	7
173	2
174	6
175	3
176	5
177	1
182	1
184	3
185	3
186	41
187	9
188	5
189	5
190	1
195	1
198	1
199	4
200	41
201	92
202	217
203	49
204	9
213	4
214	5
215	15
216	14
217	7
218	3
226	1
227	22
228	9
229	6
230	2
238	7
239	1
241	2
242	3
243	73
244	18
245	5
246	59
247	16
248	4
258	24
259	5
260	2
261	1
271	3
272	9
273	76
274	25
275	7
276	1
286	3
287	59
288	33
289	17
290	35
291	8
292	2
300	3
301	9
302	4
303	2
304	1
315	315
318	36
319	4
320	1
332	7
333	5
334	1
389	1
390	18
391	4
392	1
405	106
406	35
407	16
408	2
