Mass Spectrum: 2-Butanone, 3-[(methylsulfonyl)oxy]-
Formula: C5H10O4S
CAS: 77611-73-5
Molecular weight: 166
m/z	intensity
27	10
28	106
29	10
31	5
32	14
41	5
42	14
43	999
44	47
45	102
55	5
56	1
59	42
65	1
71	5
79	226
80	10
81	1
87	1
107	10
122	79
123	93
166	10
