Mass Spectrum: 2-Nonenal, 8-oxo-
Formula: C9H14O2
CAS: 77611-52-0
Molecular weight: 154
m/z	intensity
27	263
28	123
29	254
39	388
40	80
41	580
42	138
43	999
44	178
45	62
51	49
53	151
54	80
55	522
56	71
57	209
58	611
59	89
65	53
66	142
67	714
68	312
69	214
70	245
71	232
77	80
79	214
81	236
82	62
83	366
84	165
85	71
91	67
93	205
94	218
95	446
96	758
97	468
98	67
108	71
110	62
111	191
112	31
121	62
126	102
136	75
154	67
