Mass Spectrum: Quinoxaline, 2,3-bis(1-methylethyl)-
Formula: C14H18N2
CAS: 77611-56-4
Molecular weight: 214
m/z	intensity
38	70
39	681
41	999
42	172
43	805
50	464
51	451
52	163
53	119
54	57
55	44
63	115
64	97
65	92
74	84
75	353
76	875
77	557
78	115
79	39
85	26
89	57
90	66
91	97
92	48
101	61
102	747
103	566
104	146
115	35
116	26
117	48
118	13
128	57
129	681
130	553
131	70
142	22
143	70
144	181
145	57
156	110
158	110
159	57
167	66
168	57
169	181
170	70
171	238
172	44
181	35
182	35
183	128
184	92
185	553
186	296
187	26
197	26
199	752
200	92
213	53
214	871
215	123
