Mass Spectrum: cis-2,5-Dihydroxy-2,5-dimethyl-3-(triethylsilyl)-hex-3-ene
Formula: C14H30O2Si
CAS: 77612-12-5
Molecular weight: 258
m/z	intensity
43	150
47	160
59	410
67	240
75	540
87	740
103	660
109	450
115	999
153	210
154	270
182	80
211	260
225	520
240	50
243	30
