Mass Spectrum: Diazene, bis(3,5-dimethylphenyl)-
Formula: C16H18N2
CAS: 77611-71-3
Molecular weight: 238
m/z	intensity
17	60
18	239
27	117
28	26
29	21
32	17
38	13
39	130
40	21
41	34
43	13
50	21
51	78
52	30
53	69
55	13
57	8
62	17
63	47
64	21
65	78
66	17
75	17
76	17
77	326
78	86
79	282
80	26
89	26
90	13
91	39
102	21
103	160
104	73
105	999
106	204
107	17
133	156
134	21
141	13
152	13
153	13
155	13
165	78
166	21
167	17
178	34
179	78
180	121
181	26
193	21
194	39
195	82
196	21
209	21
210	30
237	17
238	721
239	143
240	26
