Mass Spectrum: 2-Propenoic acid, 3-[(phenylmethyl)sulfonyl]-, methyl ester, (Z)-
Formula: C11H12O4S
CAS: 77611-65-5
Molecular weight: 240
m/z	intensity
15	86
17	31
18	167
26	36
27	36
28	104
29	36
31	36
32	36
39	117
40	18
41	49
42	22
43	36
44	49
45	18
48	31
50	18
51	45
52	18
53	31
54	18
55	45
63	63
64	86
65	334
89	67
90	36
91	999
92	248
115	31
116	31
144	27
145	13
176	45
208	9
240	22
