Mass Spectrum: 7-Methylbicyclo[4.2.0]octa-1(6),3-diene-2,5-dione
Formula: C9H8O2
CAS: 77627-50-0
Molecular weight: 148
m/z	intensity
28	100
39	190
40	125
54	220
55	125
65	250
66	210
82	230
91	999
92	190
105	110
119	210
120	340
147	420
148	505
