Mass Spectrum: Proxyphylline, TMS derivative
Formula: C13H22N4O3Si
CAS: 77630-36-5
Molecular weight: 310
m/z	intensity
15	10
26	1
27	5
28	5
29	8
30	3
31	3
38	1
39	13
40	16
41	51
42	39
43	35
44	17
45	83
46	6
47	32
48	1
49	1
51	2
52	7
53	16
54	22
55	16
56	16
57	13
58	23
59	46
60	8
61	23
62	2
63	1
64	1
65	3
66	16
67	50
68	40
69	16
70	17
71	7
73	999
74	99
75	191
76	15
77	10
78	3
79	8
80	16
81	52
82	16
83	10
84	31
85	12
86	10
87	10
88	4
89	4
92	3
93	12
94	30
95	42
96	11
98	25
99	11
100	13
101	30
102	6
103	5
104	7
106	4
107	11
108	18
109	39
110	9
111	33
113	7
115	89
117	836
118	115
119	39
120	7
121	6
122	11
123	27
124	10
125	107
128	2
130	166
131	182
132	28
133	10
134	9
135	43
136	21
137	13
138	4
139	4
140	6
141	6
142	6
143	2
146	1
148	9
149	5
150	4
151	11
152	10
153	4
154	3
155	2
156	7
157	1
161	7
162	6
163	6
164	8
165	6
166	7
167	7
168	4
169	2
175	1
176	1
177	3
178	5
180	388
181	63
182	9
183	3
184	1
189	1
191	5
192	10
193	47
194	73
195	11
196	4
197	2
198	1
203	3
205	2
206	2
207	10
208	6
209	13
210	5
211	3
212	1
219	5
220	19
221	16
222	4
223	9
224	6
225	2
235	12
236	8
237	69
238	19
239	7
240	1
249	3
251	83
252	176
253	118
254	23
255	5
265	108
266	243
267	48
268	12
269	2
279	4
280	1
281	1
293	2
295	447
296	91
297	25
298	3
309	11
310	221
311	47
312	13
313	2
