Mass Spectrum: N-tert-Butoxycarbonyl-D-alanine
Formula: C8H15NO4
CAS: 7764-95-6
Molecular weight: 189
m/z	intensity
18	2
25	0
26	4
27	45
28	34
29	150
30	5
31	54
33	0
36	0
37	0
38	2
39	42
40	14
41	259
42	38
43	49
44	424
45	27
46	1
47	0
48	0
50	0
51	2
52	0
53	5
54	1
55	27
56	41
57	999
58	41
59	565
60	16
61	1
62	0
64	0
65	0
69	0
70	20
71	1
72	1
73	6
74	25
75	0
77	0
79	0
83	0
84	1
87	7
88	204
89	44
90	23
91	2
97	0
98	0
100	1
101	0
105	0
115	3
116	41
117	2
118	0
121	0
130	2
133	0
134	17
135	0
144	317
145	25
146	2
147	0
149	0
174	4
175	0
184	0
185	0
186	1
187	0
189	2
190	0
