Mass Spectrum: Proline, 3-hydroxy-4-methyl-
Formula: C6H11NO3
CAS: 77647-24-6
Molecular weight: 145
m/z	intensity
17	44
18	2
27	83
28	4
29	44
30	272
31	22
39	50
41	255
42	72
43	44
44	16
53	55
55	55
57	55
59	72
69	294
70	38
71	83
74	72
82	77
87	394
88	44
100	999
101	66
145	61
