Mass Spectrum: 4H-Cyclopropa[5',6']benz[1',2':7,8]azuleno[5,6-b]oxiren-4-one, 8,8a-bis(acetyloxy)-2a-[(acetyloxy)methyl]-1,1a,1b,1c,2a,3,3a,6a,6b,7,8,8a-dodecahydro-3,3a,6b-trihydroxy-1,1,5,7-tetramethyl-
Formula: C26H34O11
CAS: 77646-26-5
Molecular weight: 522
m/z	intensity
12	14
13	1
15	50
16	4
17	2
18	8
24	2
25	10
26	38
27	147
28	78
29	131
30	17
31	42
32	3
36	3
37	14
38	21
39	228
40	38
41	315
42	121
43	999
44	298
45	192
46	7
47	3
48	0
49	4
50	28
51	63
52	38
53	263
54	43
55	210
56	36
57	100
58	19
59	26
60	117
61	33
62	12
63	35
64	12
65	122
66	52
67	105
68	24
69	333
70	29
71	33
72	7
73	43
74	10
75	8
76	7
77	119
78	40
79	115
80	28
81	91
82	66
83	403
84	36
85	66
86	7
87	9
88	3
89	14
90	5
91	168
92	26
93	82
94	47
95	115
96	50
97	70
98	19
99	14
100	6
101	56
102	9
103	26
104	9
105	77
106	22
107	78
108	33
109	245
110	57
111	98
112	43
113	24
114	43
115	54
116	21
117	33
118	10
119	61
120	29
121	98
122	52
123	131
124	105
125	105
126	19
127	28
128	38
129	33
130	14
131	38
132	24
133	70
134	29
135	89
136	61
137	98
138	56
139	66
140	57
141	66
142	21
143	26
144	15
145	49
146	21
147	59
148	64
149	142
150	52
151	105
152	36
153	42
154	15
155	22
156	24
157	28
158	21
159	57
160	43
161	110
162	42
163	63
164	45
165	96
166	52
167	61
168	24
169	26
170	11
171	28
172	22
173	61
174	42
175	92
176	40
177	192
178	70
179	71
180	26
181	33
182	19
183	33
184	12
185	42
186	24
187	49
188	31
189	70
190	31
191	56
192	26
193	42
194	17
195	38
196	26
197	33
198	17
199	42
200	24
201	84
202	64
203	164
204	42
205	49
206	24
207	35
208	33
209	35
210	17
211	42
212	26
213	50
214	33
215	49
216	19
217	33
218	22
219	63
220	38
221	45
222	15
223	24
224	19
225	45
226	24
227	52
228	26
229	56
230	26
231	50
232	24
233	28
234	10
235	26
236	15
237	49
238	29
239	49
240	38
241	54
242	35
243	50
244	21
245	57
246	24
247	28
248	10
249	22
250	15
251	29
252	21
253	54
254	28
255	57
256	29
257	38
258	28
259	29
260	15
261	29
262	33
263	57
264	19
265	49
266	36
267	56
268	33
269	36
270	29
271	82
272	26
273	29
274	14
275	12
276	7
277	28
278	26
279	43
280	17
281	38
282	21
283	63
284	31
285	31
286	19
287	17
288	12
289	28
290	8
291	21
292	7
293	21
294	15
295	47
296	40
297	31
298	14
299	21
300	8
301	3
302	14
303	8
304	5
305	11
306	36
307	24
308	8
309	21
310	9
311	40
312	17
313	38
314	19
315	15
316	6
317	6
318	3
319	7
320	2
321	3
322	3
323	17
324	45
325	29
326	12
327	15
328	7
329	40
330	17
331	11
332	6
333	8
334	2
335	2
336	1
337	3
338	5
339	5
340	4
341	19
342	31
343	21
344	8
345	7
346	4
347	9
348	4
349	3
350	2
351	3
352	1
353	5
354	3
355	7
356	7
357	4
358	3
359	10
360	14
361	8
362	4
363	1
364	1
365	2
366	7
367	28
368	6
369	4
370	2
371	6
372	4
373	8
374	7
375	4
376	2
377	3
378	1
379	1
380	1
381	0
382	1
383	3
384	40
385	22
386	6
387	14
388	3
389	35
390	7
391	2
392	2
393	1
394	0
395	0
396	0
397	0
398	8
399	3
400	3
401	7
402	77
403	33
404	8
405	3
406	1
407	1
408	1
409	1
410	0
411	0
412	0
413	0
414	1
415	2
416	5
417	2
418	3
419	7
420	14
421	5
422	2
423	0
424	0
425	0
426	2
427	3
428	1
429	2
430	1
431	2
432	1
433	4
434	2
435	1
436	1
437	1
438	1
439	0
440	2
441	1
442	0
443	2
444	17
445	11
446	3
447	5
448	1
449	1
450	1
451	0
452	0
454	0
456	0
457	0
458	4
459	1
460	1
461	4
462	35
463	210
464	56
465	10
466	1
467	0
469	0
471	0
472	0
473	0
474	0
475	0
476	0
477	0
478	1
479	7
480	4
481	1
482	0
483	0
485	0
486	0
487	0
488	0
489	0
490	0
491	1
492	0
493	0
494	0
500	0
501	0
503	0
504	3
505	4
506	1
507	0
517	0
520	0
521	0
522	7
523	2
524	0
