Mass Spectrum: 2,4,6-Decatrienoic acid, 1a,2,5,5a,6,9,10,10a-octahydro-5,5a-dihydroxy-4-(hydroxymethyl)-1,7,9-trimethyl-1-[[(2-methyl-1-oxo-2-butenyl)oxy]methyl]-11-oxo-1H-2,8a-methanocyclopenta[a]cyclopropa[e]cyclodecen-6-yl ester
Formula: C35H46O8
CAS: 77646-20-9
Molecular weight: 594
m/z	intensity
12	7
13	3
14	8
15	1
16	1
17	8
18	22
19	1
20	0
24	1
25	5
26	27
27	333
28	127
29	230
30	11
31	25
32	6
35	0
36	4
37	16
38	38
39	186
40	55
41	236
42	41
43	147
44	116
45	133
46	25
47	3
48	3
49	27
50	83
51	205
52	61
53	191
54	227
55	999
56	61
57	75
58	19
59	6
60	19
61	8
62	19
63	58
64	16
65	111
66	38
67	125
68	16
69	86
70	13
71	38
72	19
73	25
74	61
75	27
76	33
77	472
78	208
79	444
80	66
81	105
82	158
83	638
84	55
85	161
86	16
87	13
88	9
89	36
90	22
91	416
92	77
93	147
94	36
95	86
96	25
97	33
98	16
99	36
100	638
101	77
102	25
103	50
104	27
105	750
106	97
107	144
108	38
109	66
110	22
111	30
112	11
113	11
114	8
115	116
116	41
117	72
118	30
119	86
120	50
121	111
122	150
123	138
124	38
125	25
126	16
127	38
128	102
129	100
130	33
131	75
132	30
133	66
134	33
135	75
136	30
137	58
138	30
139	50
140	16
141	77
142	52
143	69
144	30
145	66
146	38
147	272
148	77
149	750
150	108
151	113
152	86
153	61
154	27
155	58
156	33
157	61
158	50
159	97
160	47
161	77
162	33
163	50
164	50
165	161
166	111
167	83
168	33
169	55
170	36
171	66
172	52
173	80
174	38
175	66
176	50
177	55
178	102
179	125
180	47
181	66
182	36
183	55
184	38
185	80
186	50
187	72
188	47
189	91
190	44
191	72
192	66
193	127
194	52
195	91
196	47
197	91
198	50
199	72
200	38
201	55
202	69
203	75
204	38
205	66
206	55
207	83
208	50
209	130
210	58
211	102
212	44
213	80
214	47
215	69
216	41
217	55
218	36
219	55
220	36
221	75
222	72
223	150
224	86
225	97
226	47
227	63
228	30
229	47
230	30
231	47
232	27
233	88
234	38
235	86
236	72
237	183
238	69
239	100
240	44
241	58
242	30
243	44
244	22
245	30
246	33
247	61
248	61
249	180
250	125
251	177
252	86
253	119
254	50
255	55
256	22
257	27
258	13
259	22
260	13
261	33
262	22
263	94
264	283
265	188
266	216
267	119
268	36
269	63
270	25
271	25
272	11
273	16
274	16
275	33
276	25
277	191
278	52
279	77
280	41
281	91
282	93
283	77
284	44
285	26
286	12
287	11
288	8
289	9
290	13
291	30
292	527
293	361
294	152
295	66
296	19
297	72
298	38
299	44
300	27
301	19
302	8
303	5
304	5
305	9
306	8
307	5
308	11
309	30
310	86
311	144
312	50
313	27
314	8
315	12
316	4
317	5
318	3
319	4
320	4
321	4
322	3
323	3
324	3
325	3
326	6
327	19
328	61
329	75
330	27
331	10
332	4
333	4
334	5
335	4
336	4
337	4
338	3
339	3
340	2
341	2
342	2
343	4
344	3
345	8
346	16
347	8
348	16
349	8
350	3
351	3
352	3
353	3
354	3
355	5
356	2
357	3
358	3
359	3
360	2
361	2
362	2
363	3
364	9
365	6
366	4
367	3
368	3
369	6
370	3
371	4
372	3
373	3
374	4
375	4
376	3
377	3
378	2
379	3
380	2
381	5
382	4
383	4
384	4
385	4
386	16
387	10
388	7
389	4
390	2
391	3
392	5
393	7
394	5
395	3
396	2
397	5
398	4
399	3
400	2
401	3
402	3
403	8
404	6
405	5
406	4
407	3
408	2
409	1
410	8
411	22
412	8
413	4
414	19
415	13
416	6
417	6
418	4
419	27
420	10
421	5
422	3
423	2
424	1
425	1
426	1
427	2
428	8
429	25
430	36
431	11
432	16
433	22
434	8
435	5
436	2
437	3
438	1
439	1
440	2
441	2
442	3
443	2
444	2
445	9
446	8
447	22
448	16
449	7
450	27
451	16
452	5
453	1
454	1
455	1
456	7
457	3
458	83
459	30
460	13
461	11
462	5
463	91
464	36
465	10
466	5
467	3
468	1
469	1
470	1
471	0
472	1
473	1
474	5
475	4
476	36
477	13
478	7
479	2
480	1
481	1
482	0
483	0
484	0
485	0
486	1
487	0
488	0
489	0
490	1
491	1
492	7
493	4
494	38
495	16
496	6
497	2
498	1
499	0
500	0
501	0
502	1
503	1
504	1
505	0
506	0
507	1
508	1
509	0
510	1
511	1
512	1
513	0
514	3
515	2
516	1
517	1
518	0
519	0
520	1
521	1
522	0
523	0
524	1
525	0
526	0
527	1
528	0
529	1
530	1
531	1
532	4
533	4
534	2
535	0
536	0
537	0
538	1
539	0
540	1
541	0
542	1
543	0
544	0
545	0
546	1
547	1
548	1
549	0
550	3
551	3
552	1
553	0
556	0
557	0
558	1
559	0
560	1
561	0
562	0
563	0
564	1
565	0
566	0
572	0
574	1
575	0
576	11
577	5
578	2
579	0
592	1
593	0
594	11
595	4
596	1
597	0
