Mass Spectrum: 1-Azabicyclo[3.2.1]octane-4-propanoic acid, ethyl ester
Formula: C12H21NO2
CAS: 77646-18-5
Molecular weight: 211
m/z	intensity
34	4
38	10
39	236
40	35
41	373
42	965
43	100
44	45
45	218
46	91
49	3
50	8
51	32
52	25
53	148
54	95
55	365
56	84
57	211
58	42
59	6
60	10
61	4
63	8
64	8
65	31
66	29
67	122
68	81
69	52
70	36
71	14
72	5
73	6
75	5
77	34
78	8
79	79
80	60
81	150
82	999
83	435
84	68
85	7
91	19
92	9
93	37
94	28
95	36
96	101
97	17
98	4
101	5
106	10
107	8
108	41
109	21
110	523
111	155
112	11
113	6
115	4
118	4
121	4
122	21
123	12
124	119
125	15
126	4
133	4
136	6
138	75
139	29
140	7
143	4
154	7
155	3
163	6
166	201
167	28
168	7
169	5
182	34
183	23
184	21
196	44
197	5
198	3
210	25
211	164
212	32
213	4
