Mass Spectrum: 1H-Cyclopropa[3,4]benz[1,2-e]azulene-4a,5,7b,9,9a(1aH)-pentol, 3-[(acetyloxy)methyl]-1b,4,5,7a,8,9-hexahydro-1,1,6,8-tetramethyl-, 9,9a-diacetate, [1aR-(1a.alpha.,1b.beta.,4a.beta.,5.beta.,7a.alpha.,7b.alpha.,8.alpha.,9.beta.,9a.alpha.)]-
Formula: C26H36O9
CAS: 77646-25-4
Molecular weight: 492
m/z	intensity
12	0
13	1
14	7
15	52
16	2
17	3
18	16
19	0
25	1
26	2
27	28
28	70
29	55
30	1
31	8
32	8
36	0
37	0
38	1
39	42
40	11
41	164
42	25
43	999
44	34
45	39
46	1
47	0
50	2
51	10
52	8
53	64
54	12
55	158
56	11
57	64
58	8
59	14
60	26
61	17
62	1
63	5
64	2
65	44
66	48
67	70
68	9
69	311
70	21
71	24
72	2
73	5
74	1
75	1
76	1
77	82
78	25
79	123
80	26
81	49
82	25
83	429
84	34
85	46
86	7
87	5
88	0
89	4
90	2
91	141
92	31
93	82
94	94
95	123
96	41
97	25
98	7
99	8
100	2
101	14
102	4
103	20
104	13
105	117
106	32
107	111
108	48
109	94
110	17
111	229
112	54
113	21
114	58
115	35
116	19
117	44
118	20
119	76
120	35
121	111
122	70
123	76
124	35
125	94
126	11
127	16
128	27
129	47
130	23
131	76
132	30
133	70
134	32
135	54
136	60
137	31
138	15
139	28
140	11
141	26
142	30
143	76
144	30
145	76
146	34
147	88
148	35
149	52
150	18
151	76
152	28
153	23
154	11
155	26
156	44
157	64
158	38
159	111
160	76
161	82
162	36
163	47
164	22
165	32
166	15
167	22
168	12
169	23
170	21
171	52
172	64
173	147
174	51
175	50
176	32
177	34
178	14
179	41
180	18
181	27
182	13
183	38
184	22
185	40
186	31
187	48
188	41
189	46
190	32
191	32
192	17
193	18
194	19
195	23
196	14
197	40
198	55
199	105
200	47
201	70
202	25
203	41
204	30
205	23
206	16
207	20
208	12
209	25
210	18
211	100
212	48
213	31
214	17
215	44
216	58
217	43
218	18
219	29
220	11
221	14
222	8
223	28
224	14
225	34
226	29
227	26
228	14
229	43
230	16
231	10
232	8
233	34
234	13
235	17
236	14
237	21
238	19
239	30
240	10
241	25
242	20
243	55
244	24
245	14
246	7
247	11
248	10
249	13
250	12
251	38
252	22
253	28
254	19
255	19
256	11
257	9
258	8
259	15
260	13
261	52
262	12
263	8
264	5
265	24
266	37
267	20
268	9
269	23
270	7
271	16
272	9
273	5
274	2
275	10
276	48
277	28
278	11
279	35
280	9
281	13
282	5
283	21
284	26
285	14
286	5
287	5
288	1
289	3
290	1
291	1
292	2
293	20
294	105
295	42
296	11
297	14
298	3
299	5
300	1
301	5
302	4
303	11
304	3
305	1
306	10
307	2
308	1
309	1
310	4
311	22
312	100
313	29
314	9
315	4
316	1
317	1
318	1
319	1
320	1
321	1
322	1
323	1
324	0
325	2
326	8
327	3
328	1
329	18
330	17
331	6
332	1
333	0
334	0
335	1
336	15
337	8
338	2
339	2
340	2
341	2
342	1
343	4
344	5
345	1
346	0
347	2
348	1
349	0
350	0
352	0
353	4
354	70
355	25
356	7
357	6
358	2
359	1
360	0
361	0
362	0
363	0
365	0
366	0
368	0
369	0
370	2
371	10
372	129
373	33
374	6
375	1
376	0
379	0
380	0
382	1
383	0
385	0
386	2
387	0
388	0
389	7
390	8
391	1
392	0
395	0
396	10
397	1
398	0
399	0
400	1
401	0
402	0
403	1
404	0
412	0
413	0
414	11
415	2
416	0
417	3
418	1
419	0
430	0
431	1
432	15
433	14
434	3
435	0
442	0
456	4
457	1
458	0
473	0
474	0
492	2
493	0
