Mass Spectrum: N,N'-Thiobisphthalimide
Formula: C16H8N2O4S
CAS: 7764-29-6
Molecular weight: 324
m/z	intensity
41	5
42	5
43	11
44	13
45	23
46	153
47	7
48	10
49	47
50	585
51	58
52	21
53	14
54	1
55	3
56	1
57	2
58	2
60	9
61	8
62	20
63	76
64	87
65	5
66	19
69	13
70	36
71	3
72	0
73	16
74	126
75	168
76	999
77	76
78	14
79	1
80	0
81	1
82	4
84	2
86	12
87	0
88	8
90	136
91	10
92	6
93	1
94	1
95	8
96	4
97	1
98	0
99	1
100	0
101	0
102	115
104	821
105	53
106	8
108	6
109	1
110	1
111	0
112	0
113	0
115	0
116	0
117	1
118	1
119	1
120	2
121	2
122	15
123	1
124	1
126	0
128	2
130	864
131	70
132	37
134	24
135	2
136	6
138	0
139	2
140	2
146	0
147	107
148	11
150	43
151	5
152	3
154	0
160	1
162	10
163	3
164	1
165	0
166	1
174	8
175	0
177	2
178	43
179	4
180	2
184	0
191	0
192	1
194	7
195	0
196	0
208	0
209	26
210	9
211	3
212	1
221	0
222	1
224	2
235	2
236	1
238	1
250	2
251	2
252	5
253	1
254	0
256	1
278	126
279	18
280	1
282	3
283	0
323	0
324	445
325	89
326	24
327	4
