Mass Spectrum: 1-Butene, 4-iodo-
Formula: C4H7I
CAS: 7766-51-0
Molecular weight: 182
m/z	intensity
25	0
26	49
27	345
28	42
29	377
30	7
31	13
36	1
37	9
38	18
39	193
40	14
41	29
42	8
43	157
44	4
45	2
48	0
49	4
50	23
51	26
52	11
53	83
54	26
55	999
56	45
57	2
58	37
59	26
60	1
65	0
66	0
67	1
68	0
69	7
70	0
71	1
73	0
74	1
77	0
78	0
79	0
80	0
81	3
82	0
83	1
84	0
89	0
91	0
92	0
93	1
94	0
95	1
97	0
98	1
101	8
102	0
105	0
107	0
108	0
109	0
115	0
117	0
119	0
121	0
123	0
127	31
128	8
129	0
133	0
135	0
136	0
137	0
139	0
140	0
141	7
142	0
147	0
149	1
152	0
153	0
154	2
155	3
167	0
182	72
183	3
184	0
