Mass Spectrum: 2-Propenamide, N-(4-methoxyphenyl)-
Formula: C10H11NO2
CAS: 7766-37-2
Molecular weight: 177
m/z	intensity
13	1
14	1
15	4
25	1
26	13
27	124
28	9
29	31
30	2
31	4
35	7
36	5
37	6
38	15
39	45
40	8
41	118
42	40
43	168
44	7
45	4
46	2
47	35
48	16
49	12
50	20
51	36
52	89
53	64
54	13
55	513
56	85
57	102
58	5
61	5
62	11
63	36
64	34
65	41
66	8
67	16
68	7
69	15
70	51
71	59
72	3
73	1
74	5
75	4
76	5
77	27
78	35
79	37
80	52
81	13
82	7
83	190
84	13
85	127
86	5
87	20
88	1
89	3
90	9
91	19
92	23
93	7
94	5
95	140
96	9
97	3
98	6
99	4
100	9
101	1
102	1
103	1
104	4
105	5
106	23
107	25
108	540
109	49
110	4
112	1
114	3
116	1
117	5
118	5
119	3
120	6
121	6
122	450
123	999
124	119
125	9
127	4
128	1
129	1
132	3
133	4
134	29
135	5
136	11
137	1
145	1
146	6
147	1
148	3
149	11
150	2
151	1
155	2
158	1
160	2
161	6
162	16
163	2
175	1
176	9
177	846
178	95
179	9
