Mass Spectrum: p-Acrylotoluidide
Formula: C10H11NO
CAS: 7766-36-1
Molecular weight: 161
m/z	intensity
14	1
26	6
27	91
28	8
29	2
30	1
37	1
38	5
39	29
40	4
41	7
42	2
43	1
50	14
51	39
52	30
53	23
54	7
55	421
56	13
57	1
61	2
62	5
63	15
64	7
65	32
66	5
67	2
74	3
75	3
76	6
77	105
78	39
79	58
80	9
81	1
86	1
89	7
90	5
91	34
92	4
93	1
102	1
103	2
104	14
105	11
106	349
107	999
108	95
109	4
115	1
116	1
117	6
118	14
119	3
120	15
121	1
128	2
130	5
131	2
132	20
133	19
134	4
142	2
144	1
146	13
147	1
159	3
160	9
161	456
162	51
163	3
