Mass Spectrum: Epianastrephin, (-)
Formula: C12H18O2
CAS: 77670-93-0
Molecular weight: 194
m/z	intensity
41	728
42	135
43	999
44	31
45	18
50	37
51	109
52	80
53	412
54	73
55	349
56	20
57	26
58	30
59	9
62	8
63	26
65	134
66	68
67	578
68	242
69	105
70	20
71	55
72	6
74	4
77	203
78	58
79	646
80	179
81	937
82	171
83	44
84	15
85	83
86	7
91	173
93	581
94	384
95	245
96	56
97	39
98	18
99	12
103	8
105	64
106	31
107	268
108	478
109	198
110	52
111	29
112	8
113	14
115	6
117	7
118	17
119	55
120	15
121	135
122	48
123	131
124	85
125	18
133	104
134	37
135	252
136	114
137	87
138	13
139	7
143	5
147	5
148	39
149	10
150	9
151	87
152	30
153	17
161	59
162	9
165	7
166	157
167	19
176	37
177	6
179	152
180	19
194	19
