Mass Spectrum: Dichloromethyl-chloro-methyl-pentafluorophenyl-silane
Formula: C8H4Cl3F5Si
CAS: 77681-06-2
Molecular weight: 328
m/z	intensity
51	166
57	119
63	403
69	695
77	388
79	802
81	229
83	306
85	271
93	229
97	999
99	528
101	270
105	157
110	188
111	140
115	131
117	296
119	198
123	130
125	765
129	297
135	268
137	159
141	409
143	218
145	330
159	60
161	99
179	381
245	979
247	331
328	19
