Mass Spectrum: Thiophene-2-carboxylic acid, 2-acetylphenyl ester
Formula: C13H10O3S
CAS: 77708-28-2
Molecular weight: 246
m/z	intensity
33	0
34	0
35	0
37	6
38	22
39	219
40	13
41	2
42	3
43	55
44	4
45	12
46	0
47	0
48	0
49	1
50	11
51	11
52	3
53	14
54	1
55	2
57	19
58	3
59	1
60	0
61	1
62	5
63	21
64	15
65	13
66	2
67	0
68	0
69	2
70	0
71	1
72	0
73	0
74	2
75	2
76	4
77	18
78	3
79	5
80	1
81	7
82	15
83	75
84	7
85	4
86	0
87	0
88	0
89	1
90	0
91	5
92	15
93	3
94	0
95	0
96	0
97	0
98	0
99	0
100	0
101	0
102	0
103	0
104	0
105	0
107	6
108	1
111	999
112	71
113	50
114	2
115	1
117	0
118	0
119	0
120	3
121	26
122	2
123	0
124	0
125	0
126	0
127	0
128	0
129	0
131	0
132	0
133	0
134	0
135	0
136	1
137	0
141	0
143	0
145	0
146	0
147	1
148	0
149	0
151	0
152	0
153	0
156	0
158	0
159	0
161	0
167	0
170	0
171	0
172	0
174	0
175	0
177	0
184	0
185	0
187	0
189	0
191	0
201	0
202	0
203	0
204	0
205	0
213	0
214	0
216	0
218	28
219	3
220	1
221	0
225	0
227	0
228	1
229	0
230	0
231	0
232	0
242	0
245	0
246	16
247	2
248	1
249	0
