Mass Spectrum: 6,8-Diazabicyclo[3.2.1]oct-6-ene-6-oxide, 8-hydroxy-1,4,5,7-tetramethyl-
Formula: C10H18N2O2
CAS: 77719-84-7
Molecular weight: 198
m/z	intensity
39	156
41	257
42	351
43	179
53	195
54	85
55	218
67	156
68	109
69	85
70	70
73	85
77	62
79	78
81	93
82	117
83	78
84	54
86	125
87	70
94	78
95	164
96	132
98	179
107	85
108	109
109	156
110	117
112	109
122	179
123	70
124	999
125	109
136	93
140	140
151	117
153	70
168	70
181	109
198	312
199	140
