Mass Spectrum: 2,3,4-Tri-O-methyl.alpha.d-xylopyranosyl-2,3,4-tri-O-methyl.beta.d-xylopyranoside
Formula: C16H30O9
CAS: 77735-24-1
Molecular weight: 366
m/z	intensity
45	34
58	18
59	16
71	28
75	152
83	18
85	22
87	20
88	34
89	32
99	295
101	999
103	203
111	58
114	122
115	162
129	6
131	26
143	510
145	22
157	14
159	55
174	71
175	459
187	73
205	16
219	52
231	38
263	13
275	4
302	3
334	3
