Mass Spectrum: d,l-Sedamin
Formula: C14H21NO
CAS: 7773-46-8
Molecular weight: 219
m/z	intensity
41	30
42	57
43	15
44	38
55	20
56	8
57	23
69	5
70	65
71	6
77	31
79	23
84	21
96	11
97	15
98	999
99	62
112	11
113	13
219	62
