Mass Spectrum: Oxadixyl
Formula: C14H18N2O4
CAS: 77732-09-3
Molecular weight: 278
m/z	intensity
12	2
15	149
26	8
27	77
29	154
30	25
31	7
39	87
40	4
41	33
42	50
43	16
44	4
45	999
46	24
50	13
51	52
52	27
53	33
54	9
55	6
56	18
57	3
58	3
59	3
62	5
63	31
64	15
65	73
66	14
67	4
68	1
70	3
72	2
74	2
75	7
76	18
77	230
78	71
79	173
80	14
86	2
87	3
88	9
89	24
90	17
91	132
92	37
93	39
94	5
100	4
102	54
103	99
104	56
105	519
106	58
107	7
108	2
115	9
116	32
117	62
118	152
119	108
120	230
121	27
122	3
128	3
130	25
131	116
132	434
133	166
134	62
135	7
143	5
144	56
145	39
146	98
147	44
148	30
149	6
157	4
158	3
159	25
160	18
161	26
162	3
163	583
164	116
165	10
173	6
174	6
175	4
177	3
187	3
188	4
189	5
190	2
191	5
192	13
193	8
201	3
205	18
206	12
218	11
219	33
220	7
233	139
234	16
249	2
250	40
251	6
278	68
279	11
280	1
