Mass Spectrum: Pyrazole-3,5(2H,4H)-dione, 4-(4-bromobenzylideno)-1-phenyl-
Formula: C16H11BrN2O2
CAS: 77738-03-5
Molecular weight: 342
m/z	intensity
36	0
37	7
38	27
39	56
40	9
41	10
42	3
43	6
44	5
45	0
50	188
51	412
52	74
53	71
54	3
55	4
56	0
57	4
60	2
61	16
62	63
63	131
64	108
65	47
66	7
67	3
68	1
69	13
70	3
71	1
74	239
75	431
76	178
77	999
78	162
79	23
80	11
81	8
82	12
83	3
84	4
85	5
86	10
87	16
88	29
89	85
90	33
91	88
92	40
93	24
94	2
95	0
96	3
98	57
99	88
100	91
101	671
102	313
103	38
104	30
105	167
106	105
107	77
108	21
109	2
110	0
111	2
112	2
113	4
114	10
115	15
116	13
117	10
118	24
119	30
120	3
121	0
123	0
125	0
126	6
127	15
128	36
129	48
130	39
131	28
132	22
134	117
135	11
136	1
137	2
138	2
139	2
140	1
141	1
142	0
143	5
144	2
145	0
149	0
150	1
151	4
152	5
153	2
154	5
155	10
156	11
157	38
158	17
159	1
163	2
164	4
165	9
167	8
168	12
169	15
170	5
171	20
172	12
173	0
176	14
177	5
178	18
180	335
181	86
182	291
183	59
184	11
185	1
187	50
188	4
189	1
190	3
191	4
192	4
194	32
195	29
196	16
197	10
198	1
205	5
207	77
208	265
209	223
210	275
211	161
212	14
218	0
219	0
220	1
221	0
222	0
223	0
225	0
234	3
235	12
236	12
237	8
238	9
239	3
245	0
247	0
258	2
260	2
261	0
263	14
264	2
270	0
271	4
273	196
274	162
275	193
276	130
277	16
285	0
287	0
337	0
338	4
339	6
342	545
343	124
344	477
345	79
346	10
347	0
