Mass Spectrum: Benzoic acid, 2-[benzoyl(2-chlorophenyl)amino]-, methyl ester
Formula: C21H16ClNO3
CAS: 77745-34-7
Molecular weight: 365
m/z	intensity
50	30
51	60
59	20
63	30
64	20
75	30
76	20
77	480
78	40
92	20
105	999
106	100
107	20
111	20
139	20
140	30
164	20
165	20
166	40
167	20
180	20
181	20
194	30
195	20
201	30
214	30
216	20
229	30
231	20
238	40
241	20
270	20
310	30
312	20
330	520
331	130
332	30
334	40
365	20
367	10
