Mass Spectrum: Propanoic acid, 2-methyl-, 1-phenylethyl ester
Formula: C12H16O2
CAS: 7775-39-5
Molecular weight: 192
m/z	intensity
41	61
42	14
43	305
44	10
45	6
47	0
50	20
51	79
52	17
53	11
55	10
56	3
57	5
59	8
60	1
61	3
62	3
63	15
64	3
65	15
66	2
67	1
68	1
69	6
70	8
71	170
72	6
73	1
74	6
75	5
76	10
77	218
78	69
79	121
80	7
81	2
82	2
83	3
84	1
85	2
86	0
87	3
88	0
89	15
90	2
91	39
92	7
93	4
94	1
95	2
96	0
97	1
98	0
99	0
101	1
102	10
103	96
104	272
105	999
106	125
107	66
108	6
109	1
110	1
111	3
115	16
117	9
118	9
119	4
120	16
121	92
122	296
123	24
124	2
125	0
127	0
128	1
129	3
130	7
131	3
133	4
134	1
135	1
136	1
137	1
138	4
139	1
141	0
143	0
145	0
147	1
148	1
149	1
152	1
161	1
162	1
163	2
165	4
166	1
177	4
178	0
190	3
191	2
192	175
193	38
194	5
195	1
