Mass Spectrum: 2-Octen-1-ol, 7-[(tetrahydro-2H-pyran-2-yl)oxy]-, (E)-
Formula: C13H24O3
CAS: 77758-38-4
Molecular weight: 228
m/z	intensity
26	4
27	76
28	34
29	150
30	5
31	38
38	2
39	64
40	14
41	258
42	44
43	204
44	24
45	32
47	6
50	3
51	7
52	3
53	32
54	45
55	345
56	241
57	212
58	16
59	28
60	2
65	13
66	10
67	443
68	63
69	56
70	37
71	50
72	4
73	4
74	11
77	13
78	8
79	45
80	19
81	82
82	58
83	125
84	107
85	999
86	98
87	12
91	9
92	3
93	29
94	8
95	37
96	7
97	23
98	23
99	6
100	3
101	119
102	31
103	13
104	2
105	6
106	2
107	16
108	50
109	480
110	70
111	20
112	6
113	2
115	3
119	2
121	4
122	3
123	7
124	5
125	8
126	60
127	30
128	4
129	30
130	4
131	2
133	2
135	4
136	2
137	3
139	11
140	4
145	5
148	2
155	3
166	3
167	2
168	2
183	2
196	3
