Mass Spectrum: 7-Azabicyclo[4.1.0]heptane, 1-methyl-4-(1-methylethyl)-
Formula: C10H19N
CAS: 77774-31-3
Molecular weight: 153
m/z	intensity
28	153
29	59
30	35
31	5
32	10
38	10
39	126
40	27
41	224
42	293
43	53
44	48
50	12
51	34
52	20
53	84
54	34
55	86
56	40
57	52
58	27
63	17
64	8
65	33
66	26
67	310
68	328
69	60
70	103
71	17
72	34
77	59
78	34
79	117
80	93
81	97
82	999
83	48
84	27
91	110
92	65
93	148
94	167
95	152
96	242
97	34
98	5
102	4
103	15
104	8
105	30
106	41
107	64
108	173
109	103
110	65
111	10
115	17
116	8
117	40
118	14
119	64
120	31
121	43
122	142
123	38
124	7
127	4
128	10
129	7
130	9
131	15
132	36
133	7
134	69
135	21
136	124
137	34
138	5
143	5
144	5
145	7
146	22
147	38
148	24
149	27
150	55
151	26
152	31
153	4
