Mass Spectrum: Heptanoic acid, propyl ester
Formula: C10H20O2
CAS: 7778-87-2
Molecular weight: 172
m/z	intensity
26	15
27	238
28	74
29	170
30	4
31	14
37	1
38	6
39	148
40	30
41	452
42	163
43	999
44	40
45	44
46	1
50	1
51	4
52	2
53	18
54	8
55	186
56	60
57	79
58	8
59	148
60	381
61	108
62	4
63	0
65	1
66	0
67	11
68	16
69	54
70	90
71	40
72	2
73	124
74	23
75	9
77	1
79	2
81	3
82	2
83	48
84	33
85	119
86	9
87	126
88	7
89	46
90	1
91	0
93	0
94	1
95	15
96	2
97	6
98	0
101	29
102	117
103	12
104	0
110	2
111	9
113	300
114	23
115	3
129	2
130	66
131	151
132	12
133	0
157	6
