Mass Spectrum: 5.alpha.-Stigmast-9(11)-en-3.beta.-ol
Formula: C29H50O
CAS: 77794-81-1
Molecular weight: 414
m/z	intensity
55	410
57	260
95	999
159	140
201	70
213	40
231	50
273	90
283	140
288	240
301	150
342	30
381	340
396	390
399	270
414	160
