Mass Spectrum: 2-Butenoic acid, 2-methyl-, 2-methylpropyl ester, (Z)-
Formula: C9H16O2
CAS: 7779-81-9
Molecular weight: 156
m/z	intensity
26	5
27	75
28	21
29	139
30	5
31	4
37	2
38	9
39	170
40	22
41	221
42	17
43	46
44	3
45	11
49	1
50	12
51	22
52	12
53	88
54	86
55	697
56	166
57	308
58	17
59	2
60	1
65	1
66	1
68	1
69	7
72	7
73	14
74	1
81	5
82	189
83	897
84	54
85	111
86	5
95	1
97	1
98	1
99	24
100	999
101	163
102	11
103	1
113	5
114	1
123	1
126	2
141	3
156	34
157	4
