Mass Spectrum: 2-Propenoic acid, 2,3-dibromo-, methyl ester, (E)-
Formula: C4H4Br2O2
CAS: 77809-06-4
Molecular weight: 242
m/z	intensity
38	9
39	31
40	37
41	18
43	55
44	55
45	15
52	59
53	999
54	102
55	68
56	18
57	62
58	6
59	391
60	12
69	12
70	15
71	27
79	93
80	12
81	96
82	9
83	37
84	6
85	15
94	27
95	6
96	24
97	6
99	6
103	37
104	298
105	55
106	291
107	24
109	21
111	15
113	12
120	27
121	9
122	24
131	52
132	18
133	55
134	6
135	27
136	6
137	24
139	9
141	12
163	487
164	12
165	475
166	12
183	111
184	9
185	220
186	12
187	105
211	149
212	6
213	301
214	9
215	142
242	49
243	9
244	118
245	9
246	49
