Mass Spectrum: Cyclohexanol, 1R-4-acetamido-2,3-cis-epoxy-
Formula: C8H13NO3
CAS: 77803-84-0
Molecular weight: 171
m/z	intensity
38	6
39	78
40	187
41	115
42	132
43	999
44	264
45	12
46	30
51	6
52	8
53	24
54	28
55	69
56	483
57	359
58	33
59	36
60	316
61	5
65	19
66	54
67	59
68	151
69	44
70	52
71	38
72	97
73	43
74	2
81	9
82	53
83	101
84	209
85	270
86	110
87	6
93	15
94	76
95	33
97	59
98	38
99	41
100	14
101	20
109	7
110	35
111	101
112	75
114	4
124	4
127	57
128	9
152	2
154	28
171	28
