Mass Spectrum: Piperazine, 1-(aminoacetyl)-
Formula: C6H13N3O
CAS: 77808-88-9
Molecular weight: 143
m/z	intensity
42	880
43	680
44	999
45	750
56	980
57	910
71	110
85	830
86	750
98	50
114	240
143	50
