Mass Spectrum: Hexadecanoic acid, 5-methyl-, methyl ester
Formula: C18H36O2
CAS: 77828-59-2
Molecular weight: 284
m/z	intensity
28	101
29	127
30	3
31	9
32	15
33	1
38	2
39	38
40	14
41	303
42	77
43	345
44	8
45	14
51	2
53	16
54	18
55	268
56	68
57	213
58	11
59	62
60	2
61	1
65	3
66	2
67	34
68	26
69	245
70	54
71	104
72	7
73	11
74	999
75	168
76	10
77	4
78	1
79	10
80	3
81	36
82	17
83	86
84	12
85	53
86	4
87	285
88	50
89	3
91	2
92	5
93	12
94	12
95	30
96	13
97	126
98	71
99	14
100	3
101	134
102	32
103	5
107	6
108	4
109	15
110	10
111	37
112	12
113	10
115	4
121	7
122	3
123	8
124	4
125	13
126	5
127	8
128	2
129	157
130	13
131	2
135	6
136	2
137	4
138	4
139	7
140	2
141	6
142	2
143	13
144	2
149	4
151	2
152	3
153	3
154	2
155	4
157	18
158	3
163	2
165	1
167	2
169	1
171	7
172	2
179	2
180	3
181	9
182	3
185	8
186	1
199	7
208	28
209	6
210	5
211	10
212	1
213	27
214	5
219	2
233	1
234	20
235	13
236	2
237	2
241	168
242	30
243	3
251	1
252	2
253	21
254	4
269	5
283	1
284	99
285	17
286	2
