Mass Spectrum: 1,4-Benzenediol, 2-[8-(acetyloxy)-3-[(acetyloxy)methyl]-7-methyl-2,6-octadienyl]-, diacetate
Formula: C24H30O8
CAS: 77828-65-0
Molecular weight: 446
m/z	intensity
43	999
119	370
123	260
161	260
174	260
242	380
284	90
302	100
326	130
343	27
362	9
386	10
404	6
446	5
