Mass Spectrum: Silane, 1-(3-cyclodecen-1-yloxy)trimethyl-, (E)-
Formula: C13H26OSi
CAS: 77828-41-2
Molecular weight: 226
m/z	intensity
59	85
61	46
67	127
68	136
69	32
73	999
74	86
75	552
76	52
77	54
79	113
80	116
81	106
82	63
91	50
93	88
94	120
95	95
101	121
103	44
107	127
108	47
110	28
115	54
116	74
117	35
121	92
129	610
130	260
131	63
135	46
136	100
143	64
144	45
155	122
156	23
169	81
183	178
184	40
185	46
211	55
212	14
225	41
226	11
