Mass Spectrum: Butanedioic acid, 2,3-bis[(dimethylamino)methyl]-, diethyl ester
Formula: C14H28N2O4
CAS: 77828-48-9
Molecular weight: 288
m/z	intensity
27	37
28	42
29	72
30	49
35	23
36	121
38	40
41	17
42	86
43	35
44	92
45	695
46	26
57	20
58	999
59	43
71	23
82	21
96	10
97	10
98	26
114	12
125	9
128	12
141	14
142	26
143	28
145	184
146	7
170	10
198	29
230	12
243	9
244	5
288	3
