Mass Spectrum: 6,8-Nonadien-2-one
Formula: C9H14O
CAS: 77828-54-7
Molecular weight: 138
m/z	intensity
39	120
41	180
44	500
46	30
50	10
51	20
52	30
53	50
54	30
55	50
58	50
63	20
65	50
66	30
67	110
71	20
77	70
79	680
80	999
81	110
95	70
138	230
139	20
