Mass Spectrum: 1,4-Benzenediol, 2-[8-hydroxy-3-(hydroxymethyl)-7-methyl-2,6-octadienyl]-
Formula: C16H22O4
CAS: 77828-64-9
Molecular weight: 278
m/z	intensity
28	760
43	810
55	510
67	300
79	300
91	270
107	270
119	320
124	999
137	330
147	230
161	720
174	280
260	95
278	50
