Mass Spectrum: Nitrous acid
Formula: HNO2
CAS: 7782-77-6
Molecular weight: 47
m/z	intensity
28	15
30	999
31	19
46	18
47	93
