Mass Spectrum: Acetamide, N-[4-(1-acetyl-2,5-dioxo-4-imidazolidinyl)butyl]-N-cyclohexyl-, (.+/-.)-
Formula: C17H27N3O4
CAS: 77828-56-9
Molecular weight: 337
m/z	intensity
27	22
29	36
30	422
31	7
39	26
40	7
41	220
42	45
43	623
44	49
53	23
54	47
55	315
56	256
57	42
58	15
60	128
67	66
68	44
69	35
70	91
71	15
72	229
73	26
74	15
79	18
80	14
81	48
82	128
83	110
84	128
85	22
86	33
87	165
88	18
94	7
95	7
96	26
97	19
98	201
99	31
100	23
101	28
102	8
110	43
111	12
112	999
113	91
114	119
115	9
122	10
124	17
125	11
126	67
127	24
138	11
139	14
140	284
141	75
142	12
152	32
153	110
154	367
155	110
156	8
168	13
169	9
170	7
171	13
172	38
182	12
183	19
194	7
195	6
196	403
197	10
210	22
212	30
213	137
214	330
215	36
224	10
226	11
250	7
252	330
253	45
254	8
255	9
256	69
257	10
266	13
281	137
282	21
294	39
295	110
296	113
297	16
308	8
322	31
323	6
337	211
338	41
339	6
