Mass Spectrum: Cyclohexanepropanoic acid, 3,4-bis(acetyloxy)-
Formula: C13H20O6
CAS: 77828-55-8
Molecular weight: 272
m/z	intensity
27	39
39	39
41	109
42	12
43	999
53	27
54	67
55	63
58	10
60	28
61	26
66	10
67	117
68	14
69	10
70	33
73	33
74	10
77	15
79	126
80	17
81	190
82	34
83	19
84	12
91	22
92	80
93	65
94	465
95	209
96	27
97	76
98	14
105	23
107	14
108	52
109	21
110	69
111	17
118	52
119	12
123	27
124	38
125	13
126	11
133	17
134	24
136	231
137	26
151	54
152	157
153	55
154	67
155	11
169	15
170	120
171	21
194	28
212	7
