Mass Spectrum: Androstan-17-one, 3,11-bis(formyloxy)-, (3.alpha.,5.beta.,11.beta.)-
Formula: C21H30O5
CAS: 77828-38-7
Molecular weight: 362
m/z	intensity
41	676
42	60
43	456
44	360
45	104
46	108
53	132
54	36
55	808
56	60
57	184
65	80
67	712
68	112
69	284
70	84
71	100
73	112
77	264
78	104
79	736
80	132
81	552
82	84
83	144
84	36
85	44
91	916
92	232
93	712
94	292
95	480
96	132
97	352
98	48
99	44
103	56
104	68
105	852
106	999
107	776
108	544
109	508
110	104
111	84
112	32
115	64
116	40
117	264
118	572
119	652
120	260
121	348
122	168
123	176
124	40
128	64
129	232
130	116
131	420
132	232
133	360
134	220
135	184
136	60
137	60
141	40
142	68
143	280
144	480
145	456
146	156
147	364
148	124
149	184
150	112
151	48
152	48
155	56
156	144
157	340
158	268
159	328
160	192
161	200
162	124
163	80
165	100
166	40
169	136
170	76
171	232
172	152
173	168
174	304
175	128
176	52
177	72
178	56
179	36
181	44
182	32
183	124
184	64
185	180
186	60
187	100
188	108
189	60
191	72
195	124
196	56
197	176
198	72
199	352
200	84
201	104
202	44
207	240
208	52
209	72
210	36
211	328
212	128
213	516
214	352
215	176
216	392
217	56
225	32
226	776
227	336
228	260
229	192
230	40
231	84
237	360
238	48
239	36
241	68
242	172
243	56
245	136
246	40
252	400
253	132
255	532
256	144
257	72
259	72
260	84
269	40
270	932
271	336
272	120
273	72
274	68
281	76
288	72
301	292
302	56
316	268
317	48
341	40
362	264
363	60
