Mass Spectrum: 2-Cyclohexen-1-one, 3-acetyl-5,5-dimethyl-
Formula: C10H14O2
CAS: 77822-65-2
Molecular weight: 166
m/z	intensity
26	6
27	69
28	19
29	60
30	2
31	7
36	1
37	3
38	16
39	243
40	27
41	134
42	22
43	721
44	21
45	12
50	15
51	39
52	20
53	78
54	17
55	92
56	38
57	34
58	6
59	27
60	4
61	3
62	5
63	18
64	5
65	35
66	20
67	983
68	94
69	39
70	33
71	13
72	3
73	7
74	5
75	4
76	2
77	67
78	14
79	70
80	23
81	80
82	24
83	55
84	10
85	9
86	3
87	3
88	1
89	2
90	2
91	41
92	8
93	25
94	14
95	126
96	121
97	23
98	9
99	5
100	1
101	3
102	1
103	4
104	1
105	20
106	5
107	31
108	13
109	104
110	999
111	78
112	13
113	5
115	4
116	2
117	2
119	6
120	7
121	17
122	8
123	218
124	50
125	21
126	7
127	4
128	2
129	3
130	6
131	2
132	3
133	6
134	2
135	7
136	6
137	17
138	107
139	37
140	5
141	5
142	0
143	2
144	6
146	2
147	2
148	1
149	1
150	0
151	105
152	11
153	1
163	4
164	7
165	10
166	663
167	71
168	21
169	4
