Mass Spectrum: Hexadecanoic acid, 2-propyl-, methyl ester
Formula: C20H40O2
CAS: 77828-58-1
Molecular weight: 312
m/z	intensity
28	11
29	336
30	11
31	9
39	56
40	20
41	420
42	85
43	519
44	5
45	45
53	27
54	52
55	366
56	47
57	263
58	13
59	17
67	45
68	21
69	162
70	57
71	79
72	15
73	89
74	14
79	11
81	25
82	13
83	74
84	21
85	57
87	44
88	101
89	17
95	17
96	8
97	62
98	20
99	16
101	334
102	35
109	9
111	25
112	16
113	12
115	53
116	999
117	73
125	13
127	11
129	205
130	23
143	33
157	29
171	48
172	11
173	8
185	44
199	20
213	20
227	23
239	22
241	43
255	37
267	22
283	17
284	54
285	11
312	72
313	21
