Mass Spectrum: Hydrogen sulfide
Formula: H2S
CAS: 7783-06-4
Molecular weight: 34
m/z	intensity
32	444
33	420
34	999
35	25
36	42
