Mass Spectrum: Spiro[2H-indene-2,2'-[2H]pyran]-1,3-dione, 3',6'-dihydro-3',6'-dimethyl-
Formula: C15H14O3
CAS: 77846-85-6
Molecular weight: 242
m/z	intensity
26	6
27	64
28	12
29	30
31	3
37	4
38	10
39	114
40	20
41	155
42	18
43	109
44	7
45	3
49	3
50	119
51	61
52	16
53	70
54	39
55	40
56	7
57	12
58	3
60	3
61	3
62	11
63	22
64	19
65	45
66	19
67	367
68	30
69	13
70	7
71	8
72	3
73	3
74	31
75	59
76	412
77	128
78	19
79	56
80	8
81	80
82	545
83	47
84	6
85	4
86	4
87	6
88	11
89	17
90	6
91	25
92	19
93	9
94	10
95	17
96	58
97	8
98	3
99	4
100	3
101	16
102	13
103	18
104	999
105	155
106	42
107	5
108	2
109	31
110	5
111	2
112	2
113	12
114	7
115	67
116	20
117	7
118	4
119	4
120	2
121	8
122	2
123	3
124	2
125	3
126	10
127	32
128	59
129	44
130	10
131	14
132	348
133	60
134	10
135	2
137	2
138	2
139	9
140	4
141	27
142	13
143	42
144	20
145	9
146	6
147	8
148	5
152	24
153	41
154	12
155	22
156	7
157	55
158	62
159	25
160	53
161	47
162	13
163	3
164	2
165	10
166	4
167	12
168	14
169	17
170	12
171	107
172	44
173	20
174	4
175	3
176	2
177	2
178	3
179	5
180	3
181	65
182	49
183	25
184	21
185	60
186	263
187	39
188	5
189	3
195	17
196	27
197	32
198	13
199	281
200	226
201	33
202	3
205	2
207	2
208	1
209	38
210	8
211	3
212	5
213	185
214	169
215	27
216	3
223	8
224	148
225	32
226	5
227	40
228	8
229	2
241	5
242	181
243	32
244	3
