Mass Spectrum: Bicyclo(6.1.0)nonane-9-carboxylic acid
Formula: C10H16O2
CAS: 77841-63-5
Molecular weight: 168
m/z	intensity
15	4
26	7
27	139
28	46
29	130
30	3
31	9
37	1
38	8
39	208
40	38
41	488
42	98
43	133
44	10
45	37
46	3
47	3
50	9
51	34
52	21
53	139
54	224
55	458
56	48
57	51
58	11
59	14
60	36
61	66
62	4
63	9
64	2
65	49
66	74
67	639
68	299
69	144
70	77
71	63
72	9
73	121
74	8
75	2
76	1
77	66
78	48
79	274
80	400
81	623
82	382
83	121
84	111
85	57
86	243
87	38
88	5
89	1
91	41
92	9
93	191
94	75
95	179
96	113
97	372
98	74
99	176
100	138
101	19
102	2
103	3
104	5
105	7
106	47
107	68
108	999
109	409
110	32
111	92
112	73
113	57
114	19
115	3
116	1
117	5
118	1
119	3
120	2
121	52
122	143
123	67
124	10
125	99
126	59
127	18
128	2
131	1
132	8
133	2
135	18
136	2
137	1
138	1
139	92
140	102
141	9
149	4
150	56
151	24
152	2
153	12
154	1
167	3
168	29
169	15
170	1
