Mass Spectrum: 2-Propen-1-one, 1-(2,2-dimethylcyclopropyl)-
Formula: C8H12O
CAS: 77846-92-5
Molecular weight: 124
m/z	intensity
26	73
27	637
28	140
29	114
37	16
38	42
39	482
40	73
41	487
42	68
43	63
50	21
51	47
52	21
53	130
54	47
55	999
56	47
65	16
66	6
67	78
68	32
69	301
70	11
77	16
78	6
79	32
80	37
81	145
82	37
83	37
91	42
93	11
95	47
96	68
97	11
106	6
109	114
110	6
123	1
124	21
