Mass Spectrum: (1S)-2,6,6-Trimethylbicyclo[3.1.1]hept-2-ene
Formula: C10H16
CAS: 7785-26-4
Molecular weight: 136
m/z	intensity
26	3
27	86
29	55
30	1
37	2
38	10
39	140
40	20
41	159
42	11
43	72
44	0
45	0
46	0
48	0
49	1
50	14
51	43
52	20
53	73
54	7
55	56
56	4
57	1
58	4
59	1
61	1
62	4
63	16
64	5
65	44
66	15
67	62
68	45
69	11
70	1
72	1
73	0
74	2
75	4
76	2
77	210
78	36
79	170
80	88
81	34
82	4
83	1
85	0
86	0
87	1
89	8
90	5
91	224
92	280
93	999
94	86
95	15
96	0
101	0
102	1
103	11
104	4
105	78
106	23
107	50
108	11
109	2
115	4
116	1
117	3
118	0
119	16
120	3
121	113
122	12
134	0
135	1
136	49
137	5
