Mass Spectrum: d-Glucitol, 1,5-anhydro-1,1-C-[1,2-ethanediylbis(oxy)]-2,3,4,6-tetrakis-O-(phenylmethyl)-
Formula: C36H38O7
CAS: 77855-89-1
Molecular weight: 582
m/z	intensity
26	0
27	1
28	4
29	2
30	0
31	1
38	0
39	4
40	6
41	2
42	0
43	3
44	0
45	11
50	0
51	3
52	0
53	0
54	0
55	1
57	2
62	0
63	1
64	0
65	23
66	1
68	0
69	3
70	0
71	2
72	0
73	14
74	0
75	0
76	0
77	7
78	1
79	8
80	0
81	1
82	1
83	1
84	0
85	1
86	0
87	1
89	4
90	3
91	999
92	80
93	3
94	0
97	2
98	0
99	4
100	1
101	32
102	3
103	1
104	9
105	15
106	1
107	16
108	4
109	0
111	0
112	0
113	2
115	6
116	0
117	3
118	0
119	3
120	0
121	0
122	0
125	0
127	4
128	0
129	3
130	1
131	2
132	1
133	8
134	3
135	0
139	0
141	1
142	0
143	2
144	0
145	2
146	2
147	2
148	3
149	1
150	0
151	0
152	0
153	0
155	0
156	0
157	1
158	0
159	2
160	0
161	4
162	1
163	31
164	3
165	1
166	1
167	2
168	0
169	2
170	0
171	1
172	0
173	1
174	0
175	3
176	0
177	0
178	0
179	4
180	1
181	50
182	10
183	0
185	0
187	2
188	0
189	2
190	0
191	0
192	2
193	21
194	3
195	0
197	5
198	0
199	0
200	0
201	0
202	0
203	0
205	8
206	1
207	0
209	0
210	0
211	6
212	0
215	0
217	0
218	0
219	0
221	1
222	0
223	1
224	0
231	0
233	0
234	0
235	2
236	0
240	42
241	7
242	0
246	0
247	0
249	2
250	0
251	0
253	10
254	2
255	0
259	0
261	0
262	0
263	0
265	0
267	4
268	0
269	0
271	0
276	0
277	3
278	0
279	1
280	1
293	0
295	1
296	0
311	0
325	0
341	1
342	0
355	0
357	0
367	0
369	0
385	3
386	0
401	0
403	0
431	0
447	4
448	1
491	3
492	1
582	0
583	0
