Mass Spectrum: Amyl tiglate
Formula: C10H18O2
CAS: 7785-65-1
Molecular weight: 170
m/z	intensity
41	218
42	185
43	289
44	47
45	37
50	9
51	25
52	14
53	105
54	84
55	888
56	68
57	63
60	14
69	42
70	150
71	21
73	21
82	72
83	695
84	47
85	80
97	47
98	9
99	21
100	185
101	999
102	51
113	9
114	9
155	25
170	14
