Mass Spectrum: Methyl 2-chloro-eicosanoate
Formula: C21H41ClO2
CAS: 77878-04-7
Molecular weight: 360
m/z	intensity
36	13
39	173
40	10
41	518
42	133
43	999
44	40
45	18
50	8
53	29
54	69
55	644
56	141
57	754
58	34
59	197
60	10
63	10
67	173
68	69
69	355
70	141
71	320
72	16
73	10
74	719
75	205
76	16
77	18
79	80
80	37
81	211
82	106
83	299
84	176
85	200
86	13
87	954
88	98
89	18
91	16
92	13
93	34
94	24
95	216
96	139
97	243
98	237
99	50
100	48
101	179
102	21
103	16
105	13
107	32
108	823
109	77
110	275
111	112
112	66
113	114
114	18
115	58
116	18
117	8
118	16
119	24
121	235
122	45
123	165
124	48
125	64
126	13
127	69
128	45
129	128
130	69
133	8
134	21
135	13
137	58
138	45
139	40
140	13
141	74
142	10
143	240
144	26
145	10
147	13
148	32
149	16
150	40
151	45
152	42
153	24
155	34
157	26
158	13
161	16
163	280
164	18
165	114
166	21
167	13
169	13
171	82
172	24
175	10
177	221
178	16
179	112
180	29
181	18
183	13
185	96
186	10
187	5
191	45
193	13
194	10
197	8
199	77
200	10
205	34
207	53
208	77
213	48
214	10
219	58
221	24
222	5
227	133
228	21
233	37
235	32
236	8
241	106
242	10
248	10
249	26
250	45
251	5
253	18
255	29
269	21
275	16
277	5
283	179
284	21
292	80
293	16
295	10
297	42
324	10
325	37
360	26
362	8
