Mass Spectrum: (S)-4-Isopropyl-3-propionyl-2-oxazolidinone
Formula: C9H15NO3
CAS: 77877-19-1
Molecular weight: 185
m/z	intensity
26	19
27	164
28	85
29	298
30	35
39	64
40	16
41	129
42	99
43	15
44	17
45	1
53	14
54	15
55	43
56	46
57	999
58	54
59	5
67	4
68	48
69	53
70	27
71	26
72	2
74	12
84	7
85	73
86	86
87	12
88	1
107	1
108	13
109	1
113	1
114	12
115	1
129	2
130	23
131	1
140	1
141	16
142	139
143	17
144	1
184	0
185	35
186	3
