Mass Spectrum: 4-hydroxy MIPT
Formula: C14H20N2O
CAS: 77872-43-6
Molecular weight: 232
m/z	intensity
40	3
41	27
42	32
43	43
44	351
45	9
50	3
51	8
52	4
53	3
54	3
55	3
56	24
57	3
58	11
62	3
63	15
64	6
65	17
66	3
70	14
71	11
72	10
73	3
74	4
75	4
76	6
77	20
78	10
79	3
84	4
86	999
87	63
88	4
89	25
90	17
91	26
92	5
95	3
101	5
102	8
103	12
104	9
105	5
109	7
113	3
114	4
115	29
116	14
117	50
118	38
119	4
128	8
130	36
131	13
132	5
133	5
140	3
141	3
142	2
143	2
144	4
145	13
146	126
147	19
148	5
156	3
157	4
158	10
159	33
160	47
161	5
174	2
187	2
188	3
189	4
215	2
232	251
233	42
234	3
