Mass Spectrum: Tetrakis(3,4,4,5-tetramethyl-2,5-cyclohexadien-1-ylidene)cyclobutane
Formula: C44H56
CAS: 77873-06-4
Molecular weight: 584
m/z	intensity
68	999
119	350
133	310
147	420
157	230
247	350
262	940
277	270
301	190
435	310
524	270
539	670
554	140
569	710
570	340
584	200
