Mass Spectrum: .beta.-D-Erythro-Hexopyranoside, 2-(2-hydroxyethoxy)ethyl 2,3-dideoxy-4,6-O-(phenylmethylene)-
Formula: C17H24O6
CAS: 77880-37-6
Molecular weight: 324
m/z	intensity
45	999
77	420
79	160
83	360
89	950
91	360
96	80
105	999
106	330
107	930
149	260
157	46
175	750
188	5
190	17
201	4
218	135
219	70
247	1
281	0
323	17
324	70
325	12
