Mass Spectrum: 1,1,1,2,2,2-Hexabutyl-digermane
Formula: C24H54Ge2
CAS: 7788-36-5
Molecular weight: 490
m/z	intensity
39	66
40	23
41	204
42	9
43	13
44	13
45	1
50	0
51	1
53	9
55	999
56	52
57	75
58	3
67	1
70	67
71	33
72	81
73	102
74	114
75	102
76	36
77	78
78	0
79	12
81	1
83	0
85	146
87	434
88	75
89	546
90	111
91	451
93	95
95	0
97	18
98	14
99	114
100	39
101	275
102	78
103	320
104	72
105	245
107	55
109	1
111	8
113	16
114	4
115	18
116	5
117	10
118	5
119	1
120	0
125	30
126	107
127	130
128	200
129	684
130	299
131	807
132	340
133	882
134	58
135	163
136	6
141	5
142	9
143	42
144	23
145	118
146	69
147	190
148	78
149	231
150	70
151	174
152	29
153	79
154	5
155	24
156	2
157	17
158	9
159	36
161	59
162	18
163	55
164	14
165	52
166	12
167	31
168	2
169	12
171	6
172	1
173	9
174	4
175	14
176	4
177	16
178	4
179	12
180	2
181	6
183	22
185	429
186	72
187	514
188	213
189	628
190	63
191	135
192	12
193	0
195	1
197	2
198	3
199	16
200	16
201	98
202	39
203	220
204	120
205	368
206	128
207	371
208	131
209	250
210	35
211	77
212	3
213	7
215	2
216	1
217	5
218	1
219	9
220	2
221	7
222	1
223	6
224	0
229	0
231	1
233	2
235	0
239	3
240	6
241	96
243	146
244	59
245	155
246	22
247	30
248	3
254	0
255	3
257	78
258	29
259	173
260	99
261	321
262	126
263	315
264	126
265	236
266	42
267	71
269	10
281	0
310	2
311	4
313	81
315	200
316	100
317	318
318	128
319	323
320	133
321	225
322	50
323	72
324	9
325	8
365	1
366	5
368	11
369	60
371	156
372	83
373	225
374	102
375	233
376	104
377	162
378	41
379	48
380	6
381	4
423	1
424	4
425	17
427	49
428	27
429	64
430	34
431	62
432	35
433	45
434	14
435	14
436	2
437	0
479	1
481	1
482	8
483	9
484	23
485	15
486	35
487	23
488	42
490	46
491	8
492	6
493	1
