Mass Spectrum: T-2 Toxin, TMS derivative
Formula: C27H42O9Si
CAS: 77882-85-0
Molecular weight: 538
m/z	intensity
27	46
28	191
29	119
32	67
41	269
43	994
44	77
45	77
57	880
58	57
59	62
67	98
69	98
73	999
74	150
75	404
77	119
79	108
81	88
83	82
85	678
86	67
89	62
91	191
92	57
93	129
94	77
95	176
96	82
97	67
101	67
103	139
104	119
105	471
106	93
107	160
108	77
109	124
111	88
112	160
116	103
117	440
118	134
119	145
120	114
121	326
122	787
123	176
124	139
125	82
129	150
131	165
132	145
133	98
135	72
138	72
141	67
142	72
143	165
144	67
145	176
147	181
149	72
155	93
156	62
157	321
158	129
159	186
160	77
161	98
164	124
169	145
170	88
171	196
172	129
173	316
174	98
175	114
176	93
180	103
181	93
183	129
184	77
185	347
186	284
187	145
189	67
196	82
197	248
198	124
199	155
200	82
201	82
202	67
203	165
204	103
205	114
207	82
213	134
214	103
215	108
216	72
227	72
244	217
245	165
246	77
255	77
257	82
259	77
261	67
263	160
264	72
272	134
273	119
275	103
287	82
289	98
290	347
291	108
303	82
305	77
317	77
332	88
347	134
348	88
350	528
351	150
436	305
437	119
