Mass Spectrum: (18S,19S)-18,19-Dihydroxy-1,4,7,10,13,16-hexaoxocycloencosane
Formula: C14H28O8
CAS: 77887-94-6
Molecular weight: 324
m/z	intensity
55	92
56	80
57	336
58	600
59	840
60	88
61	112
63	20
69	136
70	116
71	172
72	204
73	480
74	60
75	140
76	20
77	52
81	56
82	178
83	36
84	24
85	96
86	128
87	999
88	304
89	840
90	84
91	24
97	25
98	19
99	144
100	44
101	140
102	80
103	284
104	33
105	76
112	39
113	108
114	22
115	60
116	30
117	220
118	20
119	64
121	20
122	27
129	22
130	42
131	300
132	30
133	400
134	29
147	30
149	38
151	52
157	31
161	76
163	19
174	18
175	356
176	37
177	72
187	24
195	25
205	26
219	84
263	280
264	35
