Mass Spectrum: 2-Hydroxypentadecyl propanoate
Formula: C18H36O3
CAS: 77898-99-8
Molecular weight: 300
m/z	intensity
41	305
42	63
43	432
45	84
53	17
54	68
55	287
56	87
57	999
58	184
59	78
60	26
61	11
66	17
67	120
68	106
69	205
70	54
71	132
72	19
73	46
74	77
75	55
79	13
80	13
81	94
82	138
83	151
84	27
85	46
86	11
87	21
88	333
89	57
95	69
96	99
97	102
98	19
99	10
103	15
109	31
110	29
111	47
112	10
117	39
123	15
124	15
125	20
213	23
269	1
282	2
