Mass Spectrum: 2-Hydroxy-(Z)9-pentadecenyl propanoate
Formula: C18H34O3
CAS: 77899-00-4
Molecular weight: 298
m/z	intensity
41	372
42	72
43	233
45	98
53	43
54	170
55	426
56	97
57	999
58	85
59	30
60	21
66	23
67	285
68	155
69	273
70	66
71	104
72	13
73	43
74	38
75	92
77	14
78	11
79	105
80	92
81	274
82	189
83	141
84	48
85	32
87	26
88	153
89	34
91	14
93	81
94	73
95	203
96	141
97	95
98	65
99	23
107	49
108	49
109	99
110	88
111	53
112	22
113	11
117	20
121	101
122	41
123	47
124	43
125	25
135	82
136	24
137	24
138	24
149	38
150	13
163	15
164	10
206	25
211	23
267	18
280	9
298	2
