Mass Spectrum: .alpha.-DL-Lyxo-hexopyranoside, hexyl 6-(acetylamino)-4,6-dideoxy-1-thio-, 3-acetate 2-benzoate
Formula: C23H33NO6S
CAS: 77904-56-4
Molecular weight: 451
m/z	intensity
40	20
41	170
42	90
43	320
44	70
45	40
46	30
47	30
50	60
51	90
52	30
53	40
54	20
55	160
56	160
57	160
58	70
59	30
60	110
61	40
65	30
66	20
67	60
68	70
69	120
70	60
71	90
72	60
73	60
74	20
75	30
76	40
77	210
78	50
79	20
80	20
81	110
82	90
83	130
84	90
85	90
86	50
87	50
90	10
91	50
92	10
93	30
94	70
95	50
96	30
97	80
98	70
99	130
100	90
101	30
104	10
105	999
106	140
107	30
109	50
110	110
111	90
112	70
113	30
114	10
115	30
116	20
117	20
118	20
119	20
121	10
122	90
123	50
124	130
125	70
126	30
127	20
128	90
129	60
130	10
135	20
136	10
137	20
138	10
139	50
140	10
141	40
142	30
143	20
152	90
154	40
155	10
156	20
169	20
170	210
171	70
172	20
173	20
202	70
203	20
215	30
269	120
270	70
271	20
272	20
274	50
275	20
276	10
286	10
287	50
288	20
292	230
293	80
294	30
391	10
