Mass Spectrum: Propionic acid, 3-mercapto-, isooctyl ester
Formula: C11H22O2S
CAS: 77916-53-1
Molecular weight: 218
m/z	intensity
41	384
42	83
43	541
44	25
45	39
46	19
47	80
48	3
49	5
50	1
51	7
52	3
53	35
54	17
55	408
56	187
57	999
58	62
59	43
60	68
61	364
62	17
63	23
64	1
65	7
66	3
67	38
68	24
69	251
70	175
71	845
72	52
73	14
74	4
75	5
76	0
77	9
78	1
79	10
80	1
81	17
82	20
83	230
84	312
85	79
86	4
87	26
88	171
89	221
90	19
91	14
92	1
93	4
94	1
95	10
96	2
97	48
98	6
99	6
100	0
101	10
102	2
103	4
104	4
105	13
106	188
107	113
108	15
109	11
110	5
111	18
112	241
113	128
114	12
115	11
116	2
117	3
118	2
119	11
120	3
121	3
122	1
123	4
124	1
125	3
126	5
127	6
128	0
129	9
130	1
131	3
132	1
133	12
134	2
135	2
136	1
137	2
138	1
139	2
140	2
141	2
143	8
144	5
145	52
146	4
147	10
148	3
149	3
150	0
151	2
152	2
153	2
155	1
157	7
158	1
159	2
160	0
161	26
162	5
163	3
164	0
165	1
166	0
167	1
168	1
169	1
171	2
173	1
175	9
176	2
177	1
179	1
180	0
181	1
183	0
185	5
186	0
189	5
190	2
191	1
193	0
197	0
200	14
201	2
203	1
216	0
217	0
218	15
219	4
220	1
