Mass Spectrum: 2,6-Hentriacontanediol
Formula: C31H64O2
CAS: 7796-18-1
Molecular weight: 468
m/z	intensity
64	164
65	175
66	131
76	180
77	162
79	17
80	65
98	274
99	999
101	98
115	30
116	33
117	868
119	65
121	13
379	54
380	22
381	241
432	65
433	22
434	22
448	11
449	11
450	52
451	22
