Mass Spectrum: N-(3-Phenyl-butyl)-heptafluorobutanamide
Formula: C14H14F7NO
CAS: 77970-69-5
Molecular weight: 345
m/z	intensity
39	39
41	40
51	61
69	78
77	151
78	60
79	130
91	131
103	100
105	999
106	109
118	546
119	100
169	40
226	20
330	9
