Mass Spectrum: N-(3-Phenylpropyl)-undecafluorohexanamide
Formula: C15H12F11NO
CAS: 77970-74-2
Molecular weight: 431
m/z	intensity
39	39
41	39
51	59
58	120
65	81
69	151
77	68
78	49
79	50
91	596
92	200
103	49
104	60
105	269
108	148
115	30
116	70
117	401
118	999
119	110
131	30
162	98
327	239
340	59
431	150
