Mass Spectrum: N-(2-Phenylamino-ethyl)-heptafluoro-butanamide
Formula: C12H11F7N2O
CAS: 77970-77-5
Molecular weight: 332
m/z	intensity
51	39
69	39
77	138
79	49
104	30
105	20
106	999
107	99
118	30
120	29
169	9
332	100
