Mass Spectrum: N-Benzyl-undecafluoro-hexanamide
Formula: C13H8F11NO
CAS: 77970-66-2
Molecular weight: 403
m/z	intensity
39	30
44	40
51	49
65	60
67	28
69	108
77	59
78	30
79	60
89	30
91	999
92	78
104	50
105	30
107	29
119	29
134	59
141	78
184	159
402	19
403	397
404	59
