Mass Spectrum: N-(3-Phenylbutyl)-undecafluior-hexanamide
Formula: C16H14F11NO
CAS: 77970-70-8
Molecular weight: 445
m/z	intensity
39	30
41	40
51	50
69	98
77	99
78	49
79	100
91	119
103	90
104	50
105	999
106	99
117	49
118	546
119	119
131	19
326	20
