Mass Spectrum: N-(3-Phenyl-propyl)-pentadecafluoro-octanamide
Formula: C17H12F15NO
CAS: 77970-75-3
Molecular weight: 531
m/z	intensity
41	51
51	41
58	108
65	59
69	121
77	58
78	39
79	40
91	596
92	200
103	40
104	60
105	248
106	30
108	148
116	50
117	339
118	999
119	128
131	30
162	90
169	30
377	50
408	29
427	188
440	49
531	119
