Mass Spectrum: N-(3-Phenylbutyl)-pentadeacafluoro-octanamide
Formula: C18H14F15NO
CAS: 77970-71-9
Molecular weight: 545
m/z	intensity
39	30
41	30
51	40
69	98
77	120
78	49
79	108
91	131
100	19
103	78
104	50
105	999
106	99
117	49
118	546
119	141
131	40
169	20
426	20
