Mass Spectrum: N-(3-Phenylpropyl)-trifluoroacetamide
Formula: C11H12F3NO
CAS: 77970-72-0
Molecular weight: 231
m/z	intensity
39	140
41	60
50	39
51	127
58	171
63	50
65	201
69	168
77	170
78	120
79	109
89	39
91	895
92	298
103	109
104	90
105	398
106	59
115	60
116	70
117	601
118	999
119	110
126	89
127	499
140	68
162	180
231	268
232	30
