Mass Spectrum: Bis(2,7-dimethyl-2,7-octadien-1-yl)amine
Formula: C20H35N
CAS: 77984-61-3
Molecular weight: 289
m/z	intensity
29	404
30	571
31	9
32	6
39	164
40	44
41	733
42	94
43	157
44	84
45	35
51	8
53	190
54	33
55	463
56	113
57	93
58	51
59	5
65	32
66	16
67	268
68	129
69	218
70	450
71	65
72	9
77	41
79	155
80	83
81	999
82	284
83	44
84	113
85	5
91	22
92	7
93	108
94	91
95	388
96	319
97	49
98	18
107	95
108	100
109	48
110	68
111	7
121	169
122	47
123	22
124	20
135	11
136	60
137	49
138	73
150	39
151	18
152	119
153	25
154	13
164	32
166	166
167	13
192	29
204	21
206	111
207	38
218	20
220	20
232	30
234	26
274	38
288	6
289	27
