Mass Spectrum: 2,6,10,10-Tetramethyl-1-oxaspiro[4.5]decan-6-ol
Formula: C13H24O2
CAS: 77981-89-6
Molecular weight: 212
m/z	intensity
26	31
27	174
29	299
31	97
38	28
39	224
40	75
41	466
42	166
43	830
44	189
45	129
49	15
51	18
53	110
54	43
55	486
56	147
57	216
58	150
59	108
60	32
63	15
64	17
65	43
66	23
67	233
68	90
69	446
70	323
71	381
72	72
73	16
74	44
77	55
78	21
79	83
80	27
81	199
82	213
83	235
84	407
85	999
86	33
87	116
88	15
91	70
92	22
93	93
94	49
95	249
96	103
97	113
98	73
99	90
100	48
101	22
105	41
106	19
107	90
108	86
109	447
110	133
111	342
112	206
113	58
115	16
119	31
120	20
121	46
122	27
123	223
124	54
125	386
126	843
127	319
128	289
129	51
130	15
133	20
135	33
136	25
137	117
138	245
139	83
140	32
141	70
142	38
143	23
151	48
152	37
153	39
154	25
155	43
156	22
165	16
167	20
170	244
172	28
177	33
178	16
179	37
184	15
194	85
195	22
197	75
212	127
213	16
