Mass Spectrum: N,N,2,7-Tetramethyl-2,7-octadien-1-amine
Formula: C12H23N
CAS: 77984-63-5
Molecular weight: 181
m/z	intensity
29	28
30	69
31	1
32	1
38	2
39	106
40	23
41	205
42	152
43	40
44	331
45	166
46	84
47	1
50	2
51	9
52	7
53	63
54	11
55	67
56	19
57	21
58	999
59	78
63	1
65	14
66	7
67	64
68	32
69	33
70	16
71	12
72	1
77	13
78	3
79	29
80	16
81	90
82	102
83	8
84	21
85	8
86	1
91	7
92	3
93	21
94	15
95	34
96	36
97	9
98	97
99	11
107	14
108	16
109	5
110	27
111	9
112	25
113	4
121	29
122	3
123	2
124	32
125	4
126	12
136	4
138	6
139	2
150	1
166	16
167	1
180	6
181	21
