Mass Spectrum: 3,7-Dimethyl-1,7-octadien-3-amine
Formula: C10H19N
CAS: 77984-56-6
Molecular weight: 153
m/z	intensity
30	99
32	1
39	42
40	11
41	86
42	69
43	42
44	10
50	0
51	4
52	2
53	26
54	20
55	23
56	7
57	13
58	7
65	4
66	1
67	16
68	19
69	31
70	999
71	49
77	3
79	7
80	3
81	10
82	42
83	3
84	3
91	2
93	7
94	4
95	1
96	4
108	1
109	2
110	4
121	3
126	2
138	9
