Mass Spectrum: Tripentaerythritol
Formula: C15H32O10
CAS: 78-24-0
Molecular weight: 372
m/z	intensity
12	1
13	1
14	4
15	20
16	2
17	59
18	328
19	35
20	1
25	2
26	10
27	72
28	140
29	329
30	192
31	397
32	143
33	6
36	2
37	18
38	17
39	233
40	70
41	571
42	333
43	268
44	42
45	48
46	8
47	52
48	1
49	26
50	5
51	6
52	4
53	64
54	146
55	223
56	55
57	488
58	59
59	13
60	41
61	10
63	2
65	6
66	3
67	30
68	32
69	252
70	629
71	999
72	103
73	34
74	31
75	9
77	8
78	3
79	16
80	6
81	38
82	251
83	323
84	39
85	56
86	12
87	229
88	89
89	135
90	6
91	9
92	3
93	14
94	6
95	24
96	15
97	16
98	8
99	134
100	69
101	374
102	31
103	11
104	2
105	6
106	2
107	9
108	7
109	16
110	12
111	15
112	6
113	11
114	3
115	8
116	2
117	11
118	1
119	506
120	36
121	12
122	45
123	15
124	11
125	19
126	13
127	8
128	6
129	5
130	2
131	26
132	2
133	9
134	3
135	12
136	2
137	542
138	35
139	29
140	14
141	11
142	3
143	3
144	2
145	5
146	1
147	321
148	22
149	68
150	6
151	6
152	4
153	4
154	1
155	3
156	2
157	14
158	6
159	7
160	2
161	4
162	1
163	3
164	1
165	2
166	1
167	2
168	1
169	3
170	4
171	5
172	1
173	36
174	4
175	3
176	1
177	2
179	1
181	1
183	1
185	2
186	5
187	9
188	49
189	14
190	5
191	1
193	1
194	1
195	1
197	1
199	1
200	1
201	2
202	1
203	1
204	3
205	7
206	9
207	9
208	2
209	1
210	1
211	1
213	1
215	1
217	3
218	1
219	4
220	1
221	1
224	1
225	2
227	1
235	1
237	29
238	4
239	1
247	1
249	2
251	1
253	1
255	105
256	12
257	3
263	1
264	1
265	7
266	1
267	5
269	2
275	1
277	2
278	3
279	1
305	1
306	2
307	1
354	1
373	4
