Mass Spectrum: Linalyl isobutyrate
Formula: C14H24O2
CAS: 78-35-3
Molecular weight: 224
m/z	intensity
26	4
27	100
28	12
29	31
31	5
37	0
38	3
39	92
40	29
41	360
42	32
43	350
44	12
45	5
47	1
48	1
49	1
50	5
51	15
52	13
53	98
54	15
55	86
56	11
57	11
58	3
59	4
60	2
61	0
62	0
63	4
64	1
65	14
66	13
67	97
68	106
69	440
70	34
71	313
72	19
73	12
74	0
75	1
76	1
77	36
78	8
79	70
80	354
81	213
82	39
83	53
84	7
85	6
86	2
87	3
88	7
89	8
90	2
91	46
92	153
93	999
94	113
95	48
96	12
97	5
98	1
99	2
100	1
101	1
102	1
103	3
104	1
105	28
106	10
107	97
108	20
109	77
110	12
111	13
112	2
113	2
114	1
115	1
116	1
117	5
118	6
119	15
121	356
122	33
123	16
124	4
125	2
126	1
127	3
128	1
129	1
130	1
131	0
132	1
133	1
134	3
135	9
136	148
137	51
138	25
139	15
140	0
141	12
142	8
143	1
144	0
145	0
146	0
147	1
148	1
149	4
150	4
151	2
152	5
153	4
154	14
155	6
156	1
157	1
158	1
167	2
168	2
173	2
197	3
202	0
203	1
204	0
205	2
206	4
207	1
212	0
224	15
225	4
