Mass Spectrum: 1,5-Dimethyl-1-vinyl-4-hexenyl butyrate
Formula: C14H24O2
CAS: 78-36-4
Molecular weight: 224
m/z	intensity
26	26
27	284
28	1
29	115
30	6
31	24
32	1
37	11
38	20
39	186
41	866
42	94
43	598
44	54
45	70
50	9
51	31
52	20
53	116
54	19
55	160
56	11
57	10
60	379
61	8
63	8
65	31
66	22
67	140
68	180
69	447
70	43
71	380
72	23
73	112
77	105
78	25
79	125
80	265
81	116
82	28
83	25
84	9
88	7
89	11
91	125
92	150
93	999
94	105
95	38
96	8
105	36
106	12
107	72
108	18
109	16
111	33
119	20
120	6
121	213
122	23
135	8
136	104
137	24
152	10
154	6
