Mass Spectrum: Triparanol
Formula: C27H32ClNO2
CAS: 78-41-1
Molecular weight: 437
m/z	intensity
18	3
27	3
28	9
29	17
30	28
39	2
41	3
42	22
43	4
44	41
45	1
50	1
51	1
53	1
54	2
55	2
56	32
57	14
58	42
59	2
63	2
64	1
65	5
68	1
70	10
71	7
72	15
73	1
74	1
75	1
76	3
77	3
79	1
84	9
85	5
86	999
87	60
88	1
89	5
90	2
91	14
92	5
93	2
95	1
98	2
99	6
100	130
101	10
102	10
104	8
105	6
106	2
107	1
109	1
113	1
114	1
115	4
116	1
118	1
119	15
120	5
121	5
125	14
126	4
127	6
128	2
129	1
133	5
134	1
139	2
140	1
141	2
147	1
148	1
149	1
150	1
151	2
152	4
153	2
155	1
163	2
164	2
165	6
166	1
175	1
176	4
177	2
178	5
179	2
180	1
181	1
184	1
188	1
189	3
190	1
191	3
192	3
193	1
196	1
197	2
199	2
200	1
201	1
202	2
203	1
212	1
213	3
214	1
215	2
224	1
225	2
226	3
227	3
228	2
229	2
237	1
238	1
239	7
240	3
241	3
242	1
249	1
250	2
251	1
252	11
253	8
254	2
255	2
256	2
263	2
264	1
265	2
266	2
267	3
268	4
269	2
270	1
283	1
284	1
288	1
303	1
310	1
312	12
313	2
346	1
404	1
418	1
419	5
420	2
421	2
422	1
