Mass Spectrum: 1-Propanol, 2-methyl-
Formula: C4H10O
CAS: 78-83-1
Molecular weight: 74
m/z	intensity
14	2
15	15
16	1
19	2
25	2
26	25
27	220
28	32
29	148
30	13
31	376
32	9
33	317
34	4
35	1
36	2
37	21
38	45
39	280
40	51
41	768
42	621
43	999
44	43
45	39
46	1
49	3
50	12
51	11
52	3
53	21
54	4
55	99
56	82
57	79
58	8
59	46
60	2
69	1
70	1
71	2
72	4
73	26
74	141
75	7
