Mass Spectrum: Propanal, 2-methyl-
Formula: C4H8O
CAS: 78-84-2
Molecular weight: 72
m/z	intensity
13	1
14	3
15	15
16	1
24	1
25	5
26	49
27	320
28	58
29	256
30	5
31	9
36	4
37	36
38	67
39	333
40	42
41	865
42	106
43	999
44	48
45	5
48	1
49	5
50	12
51	7
52	3
53	18
54	10
55	29
56	9
57	49
58	2
69	3
70	1
71	9
72	546
73	31
74	2
