Mass Spectrum: Propane, 1,2-dichloro-
Formula: C3H6Cl2
CAS: 78-87-5
Molecular weight: 112
m/z	intensity
12	1
13	2
14	6
15	16
24	1
25	6
26	37
27	464
28	10
29	1
31	1
35	9
36	19
37	33
38	53
39	214
40	38
41	398
42	33
43	2
45	4
47	9
48	7
49	87
50	5
51	28
58	1
60	8
61	93
62	639
63	999
64	219
65	312
66	7
72	2
73	6
74	1
75	23
76	208
77	117
78	72
79	35
80	1
83	4
85	3
95	1
96	4
97	35
98	3
99	22
100	1
101	4
111	1
112	34
113	2
114	20
115	1
116	4
