Mass Spectrum: Butane, 2-chloro-
Formula: C4H9Cl
CAS: 78-86-4
Molecular weight: 92
m/z	intensity
14	3
15	13
17	2
18	12
25	4
26	53
27	370
28	125
29	392
30	9
32	6
35	4
36	23
37	13
38	22
39	172
40	25
41	640
42	35
43	16
44	1
47	1
48	2
49	27
50	24
51	21
52	6
53	23
54	7
55	92
56	925
57	999
58	44
60	2
61	10
62	131
63	440
64	50
65	138
66	3
69	2
70	2
71	4
73	2
75	7
76	9
77	54
78	4
79	16
91	3
92	2
93	1
94	1
