Mass Spectrum: 2-Butanone
Formula: C4H8O
CAS: 78-93-3
Molecular weight: 72
m/z	intensity
15	40
26	10
27	80
28	30
29	170
39	20
41	10
42	30
43	999
44	30
57	80
71	10
72	250
73	10
