Mass Spectrum: 2-Butanol
Formula: C4H10O
CAS: 78-92-2
Molecular weight: 74
m/z	intensity
18	76
19	40
27	219
28	48
29	180
30	11
31	215
32	4
33	0
41	115
42	25
43	126
44	83
45	999
46	23
55	25
56	12
57	34
58	6
59	200
60	6
71	1
72	0
73	12
74	2
