Mass Spectrum: Dibenzylmercury
Formula: C14H14Hg
CAS: 780-24-5
Molecular weight: 384
m/z	intensity
27	5
28	6
29	0
31	0
32	0
36	0
37	1
38	7
39	61
40	5
41	16
42	0
43	0
44	0
45	0
46	0
47	0
49	0
50	9
51	22
52	11
53	1
59	0
60	0
61	1
62	9
63	35
64	12
65	145
66	8
74	0
75	1
76	1
77	1
78	0
85	0
86	1
87	1
88	1
89	39
90	22
91	999
92	76
93	2
99	0
100	0
101	0
102	0
103	1
104	15
105	2
115	0
126	0
127	0
128	0
152	0
153	0
165	1
166	1
167	0
178	0
179	1
180	0
181	1
182	52
183	8
184	0
198	1
199	1
200	2
201	1
202	3
204	0
380	3
381	6
382	8
383	6
384	10
385	1
386	2
