Mass Spectrum: Phosphine
Formula: H3P
CAS: 7803-51-2
Molecular weight: 34
m/z	intensity
16	5
17	3
31	321
32	127
33	331
34	999
