Mass Spectrum: 2-Methyl-5-(hydroxyhexafluoroisopropyl)furane
Formula: C8H6F6O2
CAS: 78033-73-5
Molecular weight: 248
m/z	intensity
26	27
27	127
28	32
29	17
31	15
32	5
37	10
38	23
39	36
40	5
41	7
42	15
43	171
44	4
47	3
49	9
50	83
51	122
52	83
53	171
54	18
55	8
56	4
57	12
59	4
62	3
63	7
64	3
65	7
66	13
67	9
69	178
71	9
73	2
75	7
77	8
78	12
79	38
80	28
81	41
82	46
83	12
84	3
87	2
88	4
89	3
91	3
93	4
95	14
97	13
99	13
100	9
101	6
103	6
109	999
110	127
111	12
112	6
113	9
114	5
115	4
116	3
117	5
119	11
128	2
130	3
131	23
132	9
133	7
136	3
145	2
147	11
149	4
150	3
151	3
158	3
159	14
160	14
161	3
163	13
169	4
178	82
179	795
180	81
181	35
182	2
183	3
188	9
209	145
210	11
211	6
212	4
229	41
230	5
231	23
246	4
247	29
248	457
249	42
250	3
