Mass Spectrum: Tricyclo[6.3.3.0]tetradec-4-ene,10,13-dioxo-
Formula: C14H18O2
CAS: 78046-17-0
Molecular weight: 218
m/z	intensity
34	8
36	5
38	66
39	999
40	454
41	754
42	226
43	243
44	67
45	5
50	53
51	196
52	171
53	404
54	238
55	299
56	39
57	48
58	9
59	1
61	3
62	16
63	43
64	32
65	233
67	539
68	99
69	71
70	13
71	4
74	3
77	457
78	174
79	623
80	206
81	175
82	97
83	20
84	1
89	23
91	476
92	122
93	251
94	134
95	229
96	95
97	20
102	1
103	34
105	226
106	112
107	145
108	80
109	80
110	28
111	2
115	31
116	13
117	61
119	152
120	81
121	75
122	41
123	38
128	10
129	9
130	9
131	36
132	43
133	122
134	70
135	55
136	39
137	53
138	19
139	3
143	7
144	3
145	21
146	24
147	48
148	84
149	26
150	15
151	5
152	2
157	6
158	9
159	17
160	74
161	44
162	19
163	9
164	3
165	6
171	1
173	8
174	22
175	66
176	29
178	22
179	3
190	43
191	2
193	3
200	1
208	4
217	2
218	71
219	4
