Mass Spectrum: Myrtanol, TMS derivative
Formula: C13H26OSi
CAS: 78055-74-0
Molecular weight: 226
m/z	intensity
26	13
27	31
29	32
30	4
35	8
37	7
39	89
40	34
41	322
43	123
44	41
45	155
46	4
47	78
49	6
50	3
51	2
53	75
54	13
55	103
56	34
57	25
58	59
59	101
60	21
61	40
62	3
63	8
64	0
65	43
66	32
67	256
68	42
69	243
70	29
71	9
72	32
73	999
74	86
75	419
76	45
77	108
78	47
79	189
80	179
81	283
82	227
83	9
84	23
85	13
88	25
89	53
91	121
92	55
93	359
94	126
95	168
97	25
99	18
101	11
102	6
103	694
104	67
105	62
106	4
107	143
108	78
109	9
110	5
112	3
115	23
116	11
117	26
121	220
122	74
123	132
124	12
126	4
127	12
129	61
130	4
134	12
135	43
136	188
137	3
139	5
141	17
142	13
143	31
144	53
145	12
146	6
153	3
155	45
156	37
157	141
158	34
159	8
169	7
170	14
171	16
175	2
177	7
179	7
181	5
183	50
184	5
193	2
197	5
207	0
209	6
211	65
212	6
226	6
