Mass Spectrum: Phosphinous chloride, (chloromethyl)(1,1-dimethylethyl)-
Formula: C5H11Cl2P
CAS: 78055-63-7
Molecular weight: 172
m/z	intensity
28	9
29	306
30	6
31	21
33	0
35	0
36	3
37	1
38	4
39	65
40	7
41	347
42	13
43	11
44	7
45	25
46	1
47	1
48	0
49	8
50	2
51	3
52	1
53	6
54	1
55	45
56	20
57	999
58	38
59	7
60	0
61	1
62	0
63	0
64	0
65	1
66	3
67	3
68	1
69	3
70	0
71	4
72	0
75	0
76	0
77	2
78	1
79	11
80	5
81	17
82	1
83	9
84	1
85	5
86	0
87	2
88	0
89	0
90	0
91	7
92	4
93	1
94	0
95	4
96	1
97	1
98	0
99	0
101	3
102	0
103	2
105	0
107	0
108	0
109	0
114	0
115	10
116	0
117	7
118	0
119	1
137	1
138	0
139	0
171	0
172	16
173	1
174	10
175	0
176	1
