Mass Spectrum: Ethane, 1,1'-oxybis[2,2-dimethoxy-
Formula: C8H18O5
CAS: 78082-46-9
Molecular weight: 194
m/z	intensity
26	2
27	18
28	30
29	82
30	7
31	165
33	7
39	1
41	10
42	13
43	148
44	8
45	225
46	4
47	250
48	6
57	7
58	93
59	207
60	7
61	1
66	22
69	4
70	1
71	52
72	15
73	111
74	14
75	999
76	64
77	9
85	2
87	4
88	10
89	149
90	7
91	2
99	45
100	2
101	32
102	2
103	9
104	2
105	1
131	189
132	13
133	1
162	2
163	8
193	2
