Mass Spectrum: Ethanone, 1,1'-(5-hydroxy-2,2-dimethylbicyclo[4.1.0]heptane-1,7-diyl)bis-, (1.alpha.,5.beta.,6.alpha.,7.alpha.)-
Formula: C13H20O3
CAS: 78091-77-7
Molecular weight: 224
m/z	intensity
26	3
27	54
28	10
29	64
30	2
31	14
37	1
38	3
39	87
40	16
41	150
42	16
43	999
44	39
45	16
46	1
47	2
48	0
49	1
50	5
51	22
52	10
53	60
54	9
55	116
56	14
57	48
58	6
59	10
60	1
61	2
62	1
63	9
64	4
65	31
66	13
67	66
68	14
69	59
70	11
71	47
72	8
73	3
74	1
75	2
76	3
77	65
78	14
79	80
80	15
81	123
82	28
83	87
84	17
85	33
86	5
87	5
88	1
89	3
90	1
91	75
92	11
93	95
94	43
95	283
96	37
97	64
98	13
99	38
100	67
101	6
102	1
103	10
104	6
105	70
106	34
107	92
108	191
109	111
110	34
111	98
112	14
113	13
114	3
115	12
116	5
117	10
118	2
119	30
120	15
121	188
122	49
123	187
124	35
125	143
126	41
127	7
128	13
129	9
130	12
131	47
132	7
133	12
134	5
135	52
136	64
137	45
138	61
139	40
140	6
141	4
142	1
143	3
144	1
145	86
146	19
147	20
148	21
149	278
150	38
151	23
152	9
153	21
154	5
155	3
160	0
161	3
162	4
163	328
164	128
165	65
166	26
167	38
168	7
169	1
170	0
173	6
174	1
175	1
176	1
177	3
178	1
179	4
180	5
181	262
182	58
183	5
184	1
189	1
191	37
192	5
193	1
194	1
195	1
196	0
205	2
206	31
207	7
208	0
209	36
210	4
211	1
223	2
224	22
225	3
226	1
