Mass Spectrum: Phenol, 4-nitro-2-(2-thiazolyliminomethyl)-
Formula: C10H7N3O3S
CAS: 78096-09-0
Molecular weight: 249
m/z	intensity
33	7
38	32
39	44
40	13
45	167
46	25
50	50
51	70
52	22
53	44
54	6
55	14
57	44
58	429
59	62
61	22
62	43
63	90
64	49
65	22
71	11
73	13
74	75
75	83
76	127
77	26
78	19
79	43
82	20
83	8
85	999
86	84
87	54
88	20
90	125
91	43
92	14
96	8
97	4
99	10
100	20
101	57
102	134
103	49
104	64
105	47
106	10
107	16
108	6
111	170
113	7
115	35
116	44
117	115
118	63
119	55
121	45
122	50
123	4
128	10
129	49
130	36
131	84
132	31
134	90
136	63
137	82
142	22
143	22
144	24
145	36
146	60
148	142
149	163
150	6
158	29
160	16
161	26
162	19
163	39
170	70
171	37
173	87
174	204
175	74
177	15
185	31
186	294
187	9
190	55
191	134
192	23
201	6
202	172
203	94
204	27
216	431
217	21
219	77
220	5
