Mass Spectrum: 2-Heptanone, 6-(3-acetyl-1-cyclopropen-1-yl)-3-hydroxy-6-methyl-, (R*,R*)-
Formula: C13H20O3
CAS: 78091-85-7
Molecular weight: 224
m/z	intensity
26	5
27	68
28	17
29	74
30	3
31	14
37	2
38	8
39	111
40	17
41	179
42	23
43	999
44	36
45	160
46	5
47	2
50	7
51	36
52	26
53	101
54	18
55	195
56	26
57	81
58	10
59	13
60	8
61	4
62	3
63	15
64	6
65	76
66	17
67	131
68	19
69	145
70	17
71	100
72	8
73	12
74	11
75	5
76	3
77	142
78	28
79	185
80	61
81	164
82	24
83	120
84	18
85	41
86	11
87	22
88	3
89	6
90	3
91	178
92	32
93	177
94	33
95	238
96	37
97	94
98	17
99	72
100	18
101	12
102	2
103	12
104	5
105	91
106	18
107	207
108	48
109	220
110	27
111	118
112	13
113	9
114	2
115	7
116	3
117	14
118	4
119	48
120	14
121	107
122	41
123	609
124	120
125	77
126	16
127	17
128	6
129	7
130	14
131	10
132	4
133	18
134	6
135	87
136	22
137	136
138	28
139	64
140	9
141	10
142	21
143	9
144	3
145	32
146	7
147	24
148	16
149	34
150	13
151	19
152	8
153	18
154	7
155	4
156	1
157	1
158	1
159	2
160	1
161	9
162	4
163	65
164	17
165	54
166	18
167	23
168	6
169	6
170	2
171	1
172	1
173	4
174	1
175	2
176	2
177	4
178	6
179	45
180	12
181	998
182	134
183	15
184	1
185	1
186	3
187	1
188	1
189	2
190	1
191	15
192	2
205	1
206	12
207	6
208	3
209	41
210	5
222	4
223	2
224	31
225	6
226	1
