Mass Spectrum: 6,8-Tridecanediol, [R-(R*,R*)]-
Formula: C13H28O2
CAS: 78090-16-1
Molecular weight: 216
m/z	intensity
56	280
70	250
83	390
98	999
101	550
109	620
127	490
145	550
155	20
156	15
180	15
181	15
198	10
199	10
216	10
