Mass Spectrum: Pentanedioic acid, 2,2-dimethyl-, diethyl ester
Formula: C11H20O4
CAS: 78092-07-6
Molecular weight: 216
m/z	intensity
41	641
42	181
43	317
45	173
46	11
47	49
48	13
49	94
50	13
51	53
52	9
53	83
54	25
55	418
56	184
57	139
58	16
59	89
60	48
61	56
62	8
63	11
64	4
65	21
66	10
67	43
69	999
70	212
71	48
72	10
73	275
74	15
75	25
76	7
77	31
78	7
79	15
80	2
81	17
82	9
83	31
84	50
85	46
86	30
87	40
88	93
89	36
90	2
91	23
92	5
93	17
94	4
95	13
96	32
97	818
98	68
99	27
100	6
101	27
102	3
103	14
104	10
105	11
106	36
107	14
108	1
109	8
110	4
111	11
112	1
113	11
115	410
116	140
117	14
118	3
119	8
120	16
121	5
122	2
123	4
124	2
125	5
126	6
127	15
128	4
129	28
130	3
131	2
132	4
133	3
134	4
135	2
136	1
137	2
138	1
139	3
140	1
141	6
142	46
143	604
144	60
145	8
146	0
147	2
149	5
150	5
151	4
152	2
153	2
154	0
155	10
156	1
157	3
159	60
160	7
161	4
162	0
163	1
165	1
166	0
167	0
168	1
169	4
170	12
171	452
172	45
173	6
175	1
176	1
177	0
178	2
179	3
180	0
181	0
182	0
183	0
185	3
187	72
188	9
189	9
190	1
191	1
193	1
194	0
195	0
196	0
199	1
200	1
201	3
202	0
215	1
216	10
217	2
218	0
