Mass Spectrum: Cyclopentanecarboxylic acid, 3,3-dimethyl-4-oxo-, methyl ester
Formula: C9H14O3
CAS: 78092-04-3
Molecular weight: 170
m/z	intensity
26	6
27	55
28	18
29	32
30	3
31	3
37	2
38	6
39	97
40	25
41	185
42	51
43	31
44	4
45	6
50	4
51	9
52	5
53	34
54	11
55	264
56	216
57	15
58	27
59	29
60	1
61	2
62	2
63	3
65	14
66	7
67	52
68	26
69	45
70	32
71	5
73	7
74	13
75	1
77	6
78	2
79	10
80	2
81	20
82	37
83	134
84	12
85	56
86	63
87	90
88	5
89	1
91	2
92	2
93	8
94	2
95	23
96	5
97	9
99	24
100	5
101	1
102	3
109	7
110	8
111	17
112	2
113	8
114	999
115	76
116	9
123	5
125	2
127	9
128	4
129	6
137	2
138	3
139	89
140	7
141	3
142	6
143	1
152	1
153	1
155	3
170	147
171	18
172	2
