Mass Spectrum: 1-Phospha-1-butyne, 3,3-dimethyl-
Formula: C5H9P
CAS: 78129-68-7
Molecular weight: 100
m/z	intensity
26	9
27	80
29	34
30	0
31	6
33	0
34	0
36	0
37	10
38	13
39	135
40	17
41	336
42	33
43	24
44	18
45	59
46	4
47	2
48	2
49	3
50	14
51	20
52	5
53	26
54	9
55	46
56	48
57	312
58	43
59	49
60	8
61	3
62	0
63	1
65	11
66	5
67	39
68	55
69	100
70	23
71	51
72	55
73	5
74	3
77	0
79	6
80	16
81	20
82	4
83	281
84	19
85	999
86	41
87	0
91	0
92	1
93	0
95	3
96	1
97	12
98	6
99	57
100	164
101	8
102	0
