Mass Spectrum: 1,2,3,4,5,6,8-Hepta-O-acetyl-.alpha.-d-gluco-l-glycero-3-octulopyranose
Formula: C22H30O15
CAS: 78174-71-7
Molecular weight: 534
m/z	intensity
43	999
46	80
60	40
97	130
98	70
103	50
113	30
115	50
131	60
139	30
140	30
157	70
173	70
287	30
347	10
