Mass Spectrum: 1,2,3,4,5,7,8-Hepta-O-acetyl-.beta.-d-altro-l-glycero-3-octulofuranose
Formula: C22H30O15
CAS: 78174-70-6
Molecular weight: 534
m/z	intensity
43	999
97	40
98	50
103	100
115	70
131	70
145	70
157	40
173	90
245	40
287	300
288	40
347	60
389	30
