Mass Spectrum: 1,2,4,5,6-Penta-O-acetyl-3,8-anhydro-.beta.-D-altro-L-glycerooctulopyranose
Formula: C18H24O12
CAS: 78174-74-0
Molecular weight: 432
m/z	intensity
43	999
69	50
70	20
81	270
85	20
97	30
98	40
99	30
103	60
112	20
113	30
115	50
131	70
139	30
141	60
145	20
157	30
173	90
211	30
217	60
271	20
361	10
373	9
