Mass Spectrum: Methyl 3-methoxyamino-propanoate
Formula: C5H11NO3
CAS: 78191-05-6
Molecular weight: 133
m/z	intensity
29	61
30	114
31	74
33	84
41	60
42	270
43	240
44	72
45	61
55	47
56	67
57	66
58	61
59	162
60	999
61	61
69	54
70	183
71	61
72	60
73	139
74	784
75	78
76	42
84	66
86	36
87	54
88	54
101	266
102	375
103	35
104	29
133	61
