Mass Spectrum: N-Methoxy-N-formyl-1,1-dimethyl-2-carbomethoxyethylamine
Formula: C8H15NO4
CAS: 78190-95-1
Molecular weight: 189
m/z	intensity
30	81
31	213
32	181
33	42
43	121
44	331
45	71
46	51
47	110
48	11
55	281
56	511
57	61
59	163
60	13
70	41
73	939
74	92
75	11
83	693
84	181
85	19
88	999
89	81
90	7
114	133
115	161
116	113
117	10
129	41
130	5
146	261
147	41
148	7
158	81
159	9
161	213
162	41
163	6
