Mass Spectrum: N-Methoxy-N-acetyl-2-carbomethoxyethylamine
Formula: C7H13NO4
CAS: 78190-90-6
Molecular weight: 175
m/z	intensity
41	38
42	181
43	761
44	28
59	161
60	999
61	42
70	238
71	21
72	61
73	162
74	483
75	21
101	23
102	861
103	53
104	22
133	953
134	81
135	8
143	21
144	152
145	21
175	23
176	2
