Mass Spectrum: N-Methyl-N-methoxy-bistrifluoromethylacetamide
Formula: C6H7F6NO2
CAS: 78191-01-2
Molecular weight: 239
m/z	intensity
28	115
29	13
30	63
33	67
34	8
45	31
46	365
47	14
56	18
58	107
59	13
60	236
61	999
62	11
69	209
70	2
81	9
88	76
89	7
91	116
92	4
113	9
159	11
179	171
180	12
209	9
239	112
240	8
241	1
