Mass Spectrum: N-Chlorocarbonyl-N-methoxy-N-isopropylamine
Formula: C5H10ClNO2
CAS: 78190-96-2
Molecular weight: 151
m/z	intensity
41	96
42	308
43	999
44	154
45	77
46	29
70	193
71	19
73	308
74	96
75	12
109	845
110	154
111	282
112	58
116	77
117	19
136	327
137	38
138	116
139	12
151	442
152	29
153	148
154	9
