Mass Spectrum: N-Methoxy-N-trifluoroacetyl-1,1-dimethyl-2-carbomethoxyethylamine
Formula: C9H14F3NO4
CAS: 78190-92-8
Molecular weight: 257
m/z	intensity
55	181
56	71
57	8
59	113
60	21
73	999
74	53
83	261
84	42
87	51
115	383
116	33
184	43
185	5
226	25
257	15
258	1
