Mass Spectrum: 1,3,4-Tri-O-acetyl-d-glycero-tetrulose
Formula: C10H14O7
CAS: 78215-66-4
Molecular weight: 246
m/z	intensity
43	999
56	10
57	10
61	10
73	30
84	10
85	140
101	50
102	40
103	150
115	20
116	20
127	60
144	20
145	90
187	50
