Mass Spectrum: Acetamide, N-(5,6,7,9-tetrahydro-1,2-dihydroxy-3,10-dimethoxy-9-oxobenzo(a)heptalen-7-yl)-,(S)-
Formula: C20H21NO6
CAS: 78231-83-1
Molecular weight: 371
m/z	intensity
41	135
42	252
43	999
44	484
45	98
46	42
47	24
48	114
49	50
50	20
51	56
52	16
53	26
54	19
55	93
56	60
57	73
58	15
59	394
60	89
61	12
62	8
63	34
64	178
65	36
66	22
67	31
68	18
69	64
70	25
71	33
73	36
74	17
75	26
76	31
77	78
78	33
79	27
80	9
81	30
82	26
83	33
84	53
85	24
86	33
87	21
88	10
89	29
90	9
91	52
94	12
95	21
96	22
97	34
98	17
99	20
101	20
102	24
103	21
104	12
105	42
106	8
107	18
110	8
111	25
112	8
113	23
114	23
115	97
116	22
117	10
118	8
119	10
121	12
125	11
126	37
127	47
128	59
129	28
130	16
131	12
132	9
133	11
134	8
135	22
138	17
139	70
140	42
141	61
142	20
143	18
144	14
145	15
146	8
147	10
148	10
149	34
150	19
151	36
152	93
153	58
154	31
155	40
156	19
157	17
158	15
161	13
163	25
164	19
165	50
166	17
167	24
168	34
169	33
170	23
171	33
172	8
173	13
177	10
178	14
179	16
180	19
181	68
182	32
183	29
184	28
185	27
186	15
187	12
193	24
194	23
195	29
196	27
197	43
198	30
199	35
200	25
201	11
208	23
209	48
210	38
211	33
212	25
213	54
214	27
215	17
221	49
222	20
223	60
224	42
225	41
226	36
227	64
228	33
229	24
235	9
236	30
237	105
238	58
239	78
240	45
241	68
242	51
243	36
244	17
249	13
250	10
251	83
252	80
253	167
254	73
255	107
256	75
257	43
258	33
259	17
264	9
265	33
266	90
267	111
268	68
269	243
270	107
271	42
272	79
273	30
279	34
280	82
281	149
282	106
283	208
284	218
285	58
286	97
287	28
294	59
295	100
296	218
297	247
298	354
299	74
300	65
301	21
310	153
311	116
312	542
313	120
314	56
315	37
324	13
325	19
326	51
327	9
328	41
329	73
330	13
339	33
340	25
341	20
343	96
344	20
353	42
354	15
355	49
356	175
357	80
358	39
369	20
370	56
371	202
372	48
