Mass Spectrum: N-Benzoyl-tyrosinyl-glycine
Formula: C18H18N2O5
CAS: 78233-53-1
Molecular weight: 342
m/z	intensity
41	128
42	52
43	251
44	80
45	90
47	17
49	140
50	63
51	164
52	45
53	30
54	16
55	178
56	124
57	227
58	38
59	19
60	25
61	15
62	10
63	39
65	53
66	12
67	26
68	50
69	134
70	98
71	149
72	15
73	33
74	32
75	14
76	103
77	472
78	360
79	61
81	48
82	75
83	140
84	179
85	122
86	181
87	18
88	14
89	10
91	105
93	10
94	12
95	37
96	44
97	127
98	43
99	49
100	13
101	40
105	999
106	306
107	514
108	63
109	11
110	15
111	58
112	25
113	26
114	15
119	13
120	27
121	62
122	335
123	46
124	247
125	36
126	15
127	10
129	14
130	68
131	14
133	11
134	13
135	10
138	14
139	14
140	11
141	13
146	30
147	208
148	25
149	50
160	11
161	111
162	15
163	11
176	117
177	135
178	20
203	9
220	20
221	624
222	80
223	10
236	59
238	35
239	19
240	52
267	25
342	9
