Mass Spectrum: 2,3-Diacetyl-dedimethylcolchicine
Formula: C24H25NO8
CAS: 78231-85-3
Molecular weight: 455
m/z	intensity
42	28
43	999
44	14
115	15
139	14
152	26
154	15
211	12
223	12
224	13
225	14
240	13
241	13
251	14
252	13
253	46
254	17
255	29
256	35
257	15
266	30
267	14
268	17
269	68
270	35
283	46
284	209
285	56
286	33
297	41
298	43
300	14
311	17
312	57
325	19
326	49
328	19
340	37
343	66
344	13
354	13
370	18
371	68
382	17
396	17
413	51
414	15
455	74
456	15
