Mass Spectrum: 3-(2-Methoxyphenyl)-1-methyl-5-phenyl-1H-[1,2,4]triazole
Formula: C16H15N3O
CAS: 78256-85-6
Molecular weight: 265
m/z	intensity
37	6
38	20
39	156
40	9
41	33
42	45
43	234
44	42
45	10
46	3
48	0
49	3
50	136
51	187
52	48
53	17
54	4
55	18
56	8
57	16
58	6
59	6
60	8
61	8
62	57
63	181
64	88
65	179
66	21
67	6
68	3
69	14
70	6
71	6
72	2
73	4
74	31
75	78
76	184
77	423
78	79
79	29
80	4
81	7
82	15
83	7
84	2
85	4
86	10
87	21
88	37
89	179
90	160
91	474
92	95
93	23
94	2
95	3
96	4
97	3
98	2
99	3
100	4
101	9
102	47
103	204
104	630
105	220
106	33
107	39
108	4
109	1
110	3
111	4
112	2
113	3
114	3
115	6
116	21
117	385
118	999
119	252
120	33
121	7
122	2
123	2
124	0
125	6
126	4
127	2
128	3
129	6
130	30
131	277
132	764
133	796
134	141
135	29
136	4
137	1
138	1
139	3
140	3
141	0
142	0
143	2
144	3
145	19
146	9
147	131
148	13
149	8
150	2
151	7
152	11
153	3
154	1
156	0
157	1
158	1
159	2
160	33
161	39
162	19
163	10
164	15
165	14
166	5
167	9
168	1
169	0
170	0
172	2
173	1
174	1
175	0
176	0
177	4
178	5
179	6
180	14
181	3
184	1
186	0
187	0
188	5
189	1
190	15
191	9
192	6
193	14
194	8
195	20
196	5
199	0
200	0
203	1
204	1
205	8
206	6
207	60
208	46
209	10
210	4
211	4
212	2
214	0
215	0
216	0
217	0
218	1
219	4
220	8
221	13
222	74
223	23
224	3
225	0
227	0
228	0
229	1
232	1
233	8
234	48
235	125
236	475
237	102
238	10
239	1
240	0
245	0
246	6
247	3
248	6
249	7
250	89
251	20
252	2
260	1
262	9
263	5
264	323
265	571
266	106
267	10
268	0
