Mass Spectrum: 6-Bromohexanoic acid, benzyl ester
Formula: C13H17BrO2
CAS: 78277-26-6
Molecular weight: 284
m/z	intensity
25	1
26	8
27	23
28	3
29	10
35	1
36	8
37	2
38	5
39	39
40	8
41	72
42	22
43	13
44	12
45	2
49	1
50	10
51	23
52	9
53	9
54	6
55	54
56	7
57	4
60	8
61	2
62	5
63	18
64	6
65	67
66	6
67	11
68	8
69	150
70	17
71	19
72	1
73	5
74	3
75	2
76	4
77	48
78	16
79	44
80	6
81	3
82	6
83	2
84	6
85	5
86	2
87	2
89	36
90	87
91	999
92	126
93	8
95	3
96	4
97	13
98	8
99	4
103	1
104	8
105	30
106	14
107	52
108	963
109	62
110	4
112	1
113	28
114	15
115	5
116	1
117	8
118	2
121	1
126	1
127	1
128	1
129	2
130	1
131	3
132	2
133	1
134	2
135	1
142	2
143	3
144	6
145	3
149	6
150	2
151	6
159	1
165	1
167	1
168	1
169	16
170	5
171	15
172	5
176	2
177	62
178	7
179	59
180	5
186	3
187	14
188	2
193	6
195	7
204	6
205	3
207	9
208	2
209	1
211	1
213	1
224	3
225	2
226	3
227	2
266	8
267	1
268	8
269	1
281	2
284	44
285	7
286	43
287	7
