Mass Spectrum: 1-(2-Bromoethyl)-1H-[1,2,4]triazole
Formula: C4H6BrN3
CAS: 783262-04-4
Molecular weight: 175
m/z	intensity
33	9
37	9
38	86
39	175
40	676
41	349
42	348
43	45
44	9
45	3
47	170
48	17
49	10
50	4
51	10
52	12
53	65
54	48
55	614
56	22
57	9
60	1
62	1
63	17
64	16
65	136
66	132
67	10
68	32
69	97
70	140
71	7
73	2
75	0
77	4
78	13
79	92
80	70
81	103
82	147
83	14
84	1
91	10
92	14
93	57
94	17
95	71
96	999
97	132
98	3
104	1
105	4
106	43
107	38
108	40
109	32
175	15
176	1
177	16
178	1
