Mass Spectrum: 1,2,4-Metheno-1H-cyclobuta[b]cyclopenta[d]furan, 2,2a,3a,4,6a,6b-hexahydro-3a-methyl-
Formula: C11H12O
CAS: 78323-74-7
Molecular weight: 160
m/z	intensity
26	25
27	139
28	50
29	27
37	13
38	46
39	375
40	41
41	103
42	14
43	523
44	18
45	13
50	82
51	198
52	74
53	155
54	30
55	40
56	14
57	36
58	17
61	12
62	41
63	133
64	48
65	206
66	35
67	31
68	80
69	24
70	10
71	19
74	21
75	26
76	22
77	210
78	113
79	84
80	27
81	254
82	78
83	21
85	12
87	12
89	74
90	25
91	831
92	207
93	23
94	13
95	144
96	13
97	14
101	9
102	38
103	79
104	36
105	96
106	22
107	9
115	885
116	441
117	999
118	116
119	22
127	129
128	111
129	175
130	144
131	635
132	111
133	20
141	71
142	91
143	113
144	53
145	878
146	97
147	10
159	280
160	192
161	25
