Mass Spectrum: 9-Methyltricyclo[4.2.1.1(2,5)]deca-3,7-diene-9,10-diol
Formula: C11H14O2
CAS: 78323-73-6
Molecular weight: 178
m/z	intensity
26	18
27	165
28	40
29	81
30	4
31	29
36	5
37	7
38	37
39	415
40	52
41	205
42	29
43	999
44	34
45	32
50	67
51	187
52	69
53	200
54	42
55	141
56	14
57	109
58	14
61	7
62	25
63	92
64	30
65	185
66	94
67	168
68	51
69	65
70	37
71	58
72	8
73	6
74	17
75	21
76	18
77	297
78	171
79	286
80	72
81	271
82	253
83	31
84	32
85	18
86	15
87	11
88	5
89	41
90	20
91	637
92	187
93	139
94	53
95	544
96	309
97	41
98	9
99	13
100	25
101	9
102	29
103	74
104	33
105	140
106	28
107	62
108	39
109	17
110	12
111	6
112	8
113	13
114	12
115	495
116	261
117	914
118	109
119	55
120	21
121	39
122	15
123	4
124	3
125	5
126	4
127	79
128	77
129	114
130	95
131	489
132	113
133	52
134	20
135	51
136	8
137	4
139	3
140	4
141	54
142	68
143	58
144	32
145	568
146	53
147	25
148	3
158	5
159	150
160	142
161	20
162	2
163	4
178	123
179	14
