Mass Spectrum: 2,5-Pyrrolidinedione, 1-[(3-pyridinylcarbonyl)oxy]-
Formula: C10H8N2O4
CAS: 78348-28-4
Molecular weight: 220
m/z	intensity
40	16
41	43
42	99
43	51
44	16
45	21
46	2
49	19
50	161
51	455
52	65
53	31
54	10
55	113
56	92
57	22
58	2
59	17
60	10
61	3
65	3
66	9
67	7
68	4
69	19
70	46
71	7
73	9
74	3
75	6
76	12
77	35
78	603
79	43
80	3
81	9
82	3
83	5
84	9
85	3
87	25
93	2
94	2
95	4
96	2
97	3
98	3
99	2
105	36
106	999
107	70
108	4
114	2
115	27
116	2
123	41
124	3
127	5
129	2
155	7
220	2
