Mass Spectrum: Furazancarboxylic acid, 4-amino-
Formula: C3H3N3O3
CAS: 78350-50-2
Molecular weight: 129
m/z	intensity
33	14
34	0
36	1
38	31
39	16
40	26
41	37
42	94
43	57
44	74
45	201
47	1
48	0
50	1
53	309
54	322
55	104
58	999
60	2
61	0
62	0
63	1
64	0
65	1
66	1
67	3
68	7
70	50
71	9
72	23
73	0
74	0
75	0
76	0
77	2
78	0
79	0
80	0
82	3
84	65
85	12
86	0
88	1
89	0
91	3
92	1
93	0
94	0
95	0
96	0
99	63
100	2
101	0
104	0
105	0
106	0
107	0
108	0
109	0
110	1
112	13
113	0
115	0
118	0
119	0
120	0
121	0
123	0
124	0
125	0
126	1
129	348
131	2
132	0
134	1
135	0
