Mass Spectrum: Furazan-3-amine, 4-methoxy-
Formula: C3H5N3O2
CAS: 78350-48-8
Molecular weight: 115
m/z	intensity
39	14
40	98
41	37
42	261
43	150
44	41
51	6
53	146
54	101
55	22
56	28
57	110
58	343
59	1
68	1
69	42
70	41
71	10
72	1
80	1
85	505
86	14
100	13
112	8
115	999
116	40
117	3
