Mass Spectrum: (2E,6E)-3,7,11-Trimethyldodeca-2,6,10-trien-1-yl decanoate
Formula: C25H44O2
CAS: 78368-57-7
Molecular weight: 376
m/z	intensity
27	11
29	32
39	23
40	10
41	311
42	24
43	198
53	58
55	148
56	20
57	133
65	20
66	11
67	192
68	391
69	999
70	73
71	121
72	9
77	33
79	67
80	175
81	361
82	54
83	36
84	16
85	61
91	48
92	87
93	406
94	81
95	109
96	17
97	19
105	57
106	24
107	185
108	55
109	71
110	11
111	12
119	93
120	40
121	160
122	79
123	133
124	21
133	48
134	50
135	120
136	207
137	61
138	8
147	38
148	32
149	24
153	7
155	75
156	9
157	10
161	84
162	18
175	9
176	5
189	64
190	9
204	22
205	5
227	6
235	2
238	3
247	2
307	2
337	1
376	3
