Mass Spectrum: .alpha.,.alpha.'-Dicyano-1,2,3,4-tetrahydro-1-methyl-2,3-quinoxalinediacetonitrile
Formula: C15H12N6
CAS: 78394-69-1
Molecular weight: 276
m/z	intensity
39	379
40	31
41	132
52	29
53	41
65	263
66	999
67	32
76	260
77	431
78	30
80	222
81	19
92	263
93	21
102	221
103	301
104	209
105	22
107	350
108	31
122	361
123	29
130	202
131	370
132	243
133	211
134	20
145	889
146	410
147	39
156	100
184	232
185	161
186	10
211	70
276	289
277	40
