Mass Spectrum: trans-S-2-Hydroxycyclohexyl-N-acetyl-L-cysteine methyl ester
Formula: C12H21NO4S
CAS: 78414-55-8
Molecular weight: 275
m/z	intensity
43	999
81	750
86	200
88	180
98	200
114	110
127	150
139	140
143	90
144	90
156	100
165	90
176	50
198	800
216	160
257	350
