Mass Spectrum: 1-Phenylmethyl-2-phenylmethoxybenzene
Formula: C20H18O
CAS: 78429-79-5
Molecular weight: 274
m/z	intensity
51	50
65	80
77	50
91	999
92	80
183	80
274	70
275	15
276	2
