Mass Spectrum: 2-[(Phenylamino)carnonyl)cyclohexanecarboxylic acid
Formula: C14H17NO3
CAS: 78431-28-4
Molecular weight: 247
m/z	intensity
42	154
44	180
53	19
54	19
55	31
65	31
66	30
67	32
77	44
81	160
93	999
94	76
109	41
119	31
229	12
247	51
