Mass Spectrum: 4-(2-Benzyloxy-1-hydroxy-ethyl)-[1,3]dioxolan-2-one
Formula: C12H14O5
CAS: 78492-30-5
Molecular weight: 238
m/z	intensity
26	2
27	24
29	28
30	5
31	36
38	5
39	47
40	5
41	31
42	19
43	84
44	88
45	27
47	3
50	12
51	39
52	12
53	6
54	6
55	15
56	5
57	31
58	7
59	12
60	3
61	6
62	5
63	45
64	10
65	129
66	9
67	2
68	2
69	10
70	29
71	17
72	2
73	28
74	5
75	4
76	5
77	64
78	20
79	81
80	7
81	3
82	2
83	4
84	2
85	3
86	2
87	9
88	3
89	36
90	33
91	999
92	189
93	14
95	2
97	3
99	2
101	6
102	4
103	4
104	10
105	65
106	11
107	220
108	45
109	5
111	2
113	2
115	5
116	3
117	13
118	5
119	8
120	10
121	12
122	3
123	2
127	2
129	3
130	3
131	7
132	15
133	212
134	29
135	3
137	2
145	20
146	8
147	3
158	13
159	44
160	5
175	20
176	131
177	18
178	10
193	3
194	3
237	4
238	21
239	3
