Mass Spectrum: Bis-bicyclo[2.2.1]hept-2-ene-5-yl ketone
Formula: C15H18O
CAS: 78507-10-5
Molecular weight: 214
m/z	intensity
26	10
27	194
28	15
29	11
31	2
32	1
36	1
37	4
38	20
39	207
40	86
41	100
42	7
43	14
44	1
50	15
51	54
52	22
53	44
55	646
56	21
57	24
58	1
61	2
62	7
63	25
64	11
65	193
66	999
67	74
68	5
69	2
70	243
71	14
74	1
75	1
77	173
78	93
79	73
80	13
81	9
82	58
83	633
84	33
85	4
86	1
89	5
91	181
92	61
93	259
94	57
95	6
96	2
97	2
103	4
104	8
105	24
106	13
107	15
108	1
112	1
113	1
115	9
116	3
117	10
118	4
119	18
120	30
121	25
122	2
127	2
128	6
129	18
130	81
131	14
132	4
133	46
134	10
135	10
136	10
145	2
146	2
147	42
148	412
149	55
150	3
155	1
157	1
171	1
186	1
196	12
197	2
214	38
215	5
