Mass Spectrum: 5-(2,4-Dimethoxyphenyl)cyclohexane-1,3-dione
Formula: C14H16O4
CAS: 78546-99-3
Molecular weight: 248
m/z	intensity
38	27
39	162
40	17
41	82
42	999
43	71
50	37
51	77
55	26
56	13
59	13
62	24
63	55
64	10
65	43
69	82
71	14
77	92
78	62
84	19
90	23
91	101
103	21
121	162
122	17
134	22
149	125
150	12
164	47
165	15
176	10
191	245
192	25
193	2
233	11
234	2
248	273
249	29
250	3
