Mass Spectrum: 4-Pentenoic acid, 2-methyl-4-nitro-, 1,1-dimethylethyl ester
Formula: C10H17NO4
CAS: 78551-04-9
Molecular weight: 215
m/z	intensity
26	7
27	70
28	46
29	213
30	47
31	15
37	2
38	7
39	120
40	41
41	405
42	42
43	90
44	8
45	17
46	3
47	1
48	1
49	1
50	6
51	14
52	6
53	39
54	9
55	43
56	157
57	999
58	96
59	60
60	2
62	4
63	8
65	32
66	14
67	377
68	36
69	12
70	3
71	3
72	2
73	4
74	42
75	2
77	4
78	12
79	5
80	2
81	3
82	1
83	4
84	4
85	7
86	3
91	5
92	8
93	5
94	2
95	19
96	3
97	5
98	29
99	3
100	1
108	1
109	19
110	2
111	4
112	4
113	146
114	234
115	104
116	7
123	1
124	14
125	39
126	6
127	3
128	1
135	8
142	522
143	50
144	6
159	6
160	20
161	2
200	2
215	1
