Mass Spectrum: Cyclopentane-3'-spirotricyclo[3.1.0.0(2,4)]hexane-6'-spirocyclopentane
Formula: C14H20
CAS: 78578-93-5
Molecular weight: 188
m/z	intensity
26	27
27	170
28	122
29	94
30	1
32	8
37	1
38	11
39	253
40	38
41	421
42	24
43	21
44	19
50	25
51	93
52	53
53	115
54	12
55	92
56	5
57	4
58	12
59	2
62	7
63	46
64	25
65	141
66	47
67	261
68	25
69	86
70	7
73	1
74	4
75	11
76	11
77	229
78	157
79	504
80	82
81	97
82	9
83	1
86	2
87	3
88	3
89	21
90	13
91	999
92	367
93	160
94	81
95	30
96	2
97	1
99	1
100	0
101	3
102	16
103	73
104	148
105	294
106	95
107	49
108	16
109	4
111	1
112	3
113	4
114	6
115	116
116	64
117	402
118	189
119	471
120	141
121	31
122	2
126	1
127	15
128	49
129	55
130	63
131	473
132	95
133	40
134	18
135	3
136	0
139	1
140	2
141	12
142	7
143	21
144	16
145	750
146	183
147	149
148	18
149	1
153	1
154	1
155	2
157	5
158	5
159	117
160	43
161	5
162	1
171	1
173	23
174	3
184	1
185	1
186	5
187	14
188	122
189	21
190	1
