Mass Spectrum: Tetracyclo[6.1.0.0(2,4).0(5,7)]nonane, 3,3,6,6,9,9-hexaethyl-, cis,cis,trans-
Formula: C21H36
CAS: 78578-98-0
Molecular weight: 288
m/z	intensity
25	1
26	13
27	56
29	209
30	3
36	0
37	1
38	0
39	40
40	5
41	455
42	19
43	999
44	31
45	0
47	2
48	1
49	1
50	2
51	8
52	2
53	58
54	5
55	770
56	37
57	55
61	0
62	0
63	8
65	36
66	4
67	115
68	6
69	282
70	16
71	364
72	20
73	7
74	0
75	5
76	3
77	74
78	14
79	49
80	12
81	99
82	10
83	119
84	9
85	11
86	1
87	0
88	1
89	5
90	2
91	362
92	41
93	35
94	7
95	86
96	5
97	140
98	11
99	1
100	2
101	2
102	2
103	18
104	10
105	413
106	36
108	2
109	96
110	7
111	7
112	1
113	0
114	0
115	43
116	21
117	87
118	14
119	546
120	49
121	45
122	8
123	54
124	5
125	10
126	1
127	10
128	35
129	49
130	18
131	87
132	16
133	290
134	56
135	29
136	8
137	44
138	6
139	2
140	0
141	16
142	14
143	28
144	12
145	82
146	20
147	415
148	53
149	50
150	8
151	20
152	8
153	6
154	3
155	6
156	4
157	18
158	8
159	68
160	16
161	690
162	93
163	15
164	6
165	7
166	30
167	6
168	1
169	2
170	1
171	11
172	6
173	38
174	12
175	545
176	88
177	16
178	7
179	2
180	1
181	0
182	0
183	0
184	0
185	4
186	2
187	36
188	26
189	283
190	47
191	41
199	2
200	2
201	60
202	13
203	81
204	25
205	9
206	1
208	0
211	0
213	1
214	0
215	27
216	16
217	745
218	131
219	12
220	0
228	0
229	6
230	23
231	43
232	10
233	3
234	2
243	2
244	2
245	4
246	1
255	0
257	3
258	2
259	927
260	191
261	17
262	1
273	7
274	1
286	0
288	173
289	38
290	4
