Mass Spectrum: 2-Buten-1-ol, 3-methyl-4-(phenylthio)-, (E)-
Formula: C11H14OS
CAS: 78592-86-6
Molecular weight: 194
m/z	intensity
26	8
27	80
29	198
30	6
31	40
37	8
38	22
39	247
40	25
41	383
42	18
43	43
44	13
45	80
46	5
47	8
49	3
50	46
51	120
52	20
53	55
54	7
55	77
56	41
57	181
58	16
59	15
60	2
61	5
62	10
63	29
64	6
65	183
66	90
67	42
68	7
69	82
70	6
71	17
72	2
73	5
74	14
75	11
76	9
77	95
78	25
79	13
81	10
82	24
83	109
84	879
85	79
86	5
87	3
89	3
91	33
92	2
93	3
95	2
97	6
98	4
99	24
100	2
101	1
102	2
103	3
104	2
105	3
107	2
108	35
109	265
110	999
111	99
112	43
113	3
115	16
116	4
117	3
121	8
122	3
123	32
124	9
125	3
127	3
128	13
129	34
130	45
131	5
134	9
135	52
136	5
137	2
139	0
141	10
142	6
143	7
144	1
147	13
148	5
149	21
150	2
155	3
160	0
161	18
162	0
163	138
164	19
165	7
175	1
176	26
177	4
191	1
192	2
194	153
195	19
196	7
