Mass Spectrum: Tricyclo[4.3.1.1(2,5)]undec-3-en-10-ol, 3-methyl-, (1.alpha.,2.beta.,5.beta.,6.alpha.,10R*)-
Formula: C12H18O
CAS: 78595-95-6
Molecular weight: 178
m/z	intensity
26	7
27	150
28	30
29	140
30	5
31	31
38	7
39	221
40	36
41	357
42	41
43	199
44	22
45	18
50	18
51	83
52	45
53	170
54	34
55	211
56	18
57	131
58	14
59	7
60	11
62	8
63	24
64	12
65	120
66	50
67	218
68	49
69	133
70	134
71	47
72	8
73	9
74	10
75	14
76	7
77	374
78	185
79	639
80	963
81	999
82	98
83	99
84	64
85	40
86	6
87	5
89	12
90	9
91	530
92	382
93	552
94	362
95	182
96	136
97	324
98	167
99	25
103	33
104	53
105	239
106	211
107	321
108	56
109	38
110	21
111	20
112	8
113	10
115	40
116	22
117	188
118	159
119	353
120	336
121	86
122	23
123	21
124	10
125	6
126	5
127	11
128	13
129	22
130	22
131	299
132	173
133	50
134	25
135	67
136	19
137	20
138	5
139	7
140	5
141	8
142	5
143	9
144	19
145	622
146	78
147	52
148	10
149	37
150	32
151	8
159	49
160	727
161	107
162	8
163	20
178	786
179	112
180	11
