Mass Spectrum: Tricyclo[4.3.1.1(2,5)]undecan-10-one, 3-methylene-, (1.alpha.,2.beta.,5.beta.,6.alpha.)-
Formula: C12H16O
CAS: 78596-00-6
Molecular weight: 176
m/z	intensity
26	5
27	105
28	12
29	33
30	1
31	3
35	5
36	2
37	3
38	9
39	164
40	42
41	166
42	14
43	29
44	5
45	2
47	9
48	1
49	6
50	15
51	55
52	39
53	107
54	24
55	117
56	7
57	11
58	5
59	5
60	4
61	1
62	4
63	24
64	9
65	72
66	53
67	108
68	24
69	44
70	21
71	6
72	1
73	2
74	4
75	10
76	5
77	237
78	105
79	999
80	227
81	101
82	24
83	23
84	13
85	4
86	3
87	1
88	1
89	7
90	6
91	229
92	87
93	110
94	48
95	119
96	693
97	333
98	197
99	14
100	1
101	2
102	4
103	21
104	18
105	128
106	71
107	52
108	34
109	80
110	33
111	7
112	1
113	2
114	1
115	19
116	8
117	65
118	10
119	78
120	35
121	33
122	12
123	2
125	1
127	3
128	7
129	16
130	11
131	10
132	16
133	83
134	23
135	15
136	1
141	3
142	2
143	12
144	2
145	4
146	2
147	30
148	78
149	13
157	5
158	14
159	4
161	23
162	3
165	1
175	7
176	374
177	57
178	5
