Mass Spectrum: 2,2-Dimethyl-propyl 2,2-dimethyl-propane-thiosulfinate
Formula: C10H22OS2
CAS: 78607-80-4
Molecular weight: 222
m/z	intensity
55	198
56	90
57	471
71	999
72	80
152	99
222	17
223	5
224	1
