Mass Spectrum: 1-Butanol, 3-methyl-2-(methylamino)-, (S)-
Formula: C6H15NO
CAS: 78617-54-6
Molecular weight: 117
m/z	intensity
27	133
28	41
29	122
30	40
31	23
38	4
39	52
40	8
41	71
42	117
43	39
44	66
45	7
51	4
52	2
53	9
54	11
55	196
56	171
57	36
58	21
59	8
60	122
61	2
66	3
67	2
68	9
69	8
70	64
71	149
72	207
73	12
74	731
75	25
84	18
85	5
86	999
87	54
88	3
100	4
102	2
116	2
