Mass Spectrum: 1-Butyl-2-methylidene-3-(trimethylsilyl)cyclopropane
Formula: C11H22Si
CAS: 78638-80-9
Molecular weight: 182
m/z	intensity
43	70
45	100
59	230
73	999
74	80
83	40
85	40
97	50
99	30
111	40
139	70
167	40
