Mass Spectrum: 14-Hydroxyhexadecan-1-yl acetate
Formula: C18H36O3
CAS: 78648-85-8
Molecular weight: 300
m/z	intensity
41	475
42	114
43	999
44	108
45	60
54	136
55	975
56	269
57	620
58	70
59	661
60	38
61	566
62	22
67	402
68	449
69	741
70	231
71	174
72	47
73	38
79	38
80	19
81	345
82	421
83	367
84	101
85	54
87	22
95	332
96	247
97	288
99	66
100	32
109	196
110	70
112	180
113	32
123	114
125	79
126	44
127	19
131	22
137	70
138	35
139	19
140	19
151	19
154	28
166	19
174	19
182	104
193	35
194	19
211	38
222	51
271	215
272	38
