Mass Spectrum: 2,4-Pentanediol, 3-nitro-, diacetate
Formula: C9H15NO6
CAS: 78651-66-8
Molecular weight: 233
m/z	intensity
26	4
27	17
28	29
29	16
30	18
31	2
38	2
39	26
40	7
41	64
42	28
43	999
44	35
45	21
51	2
52	2
53	13
54	3
55	8
56	4
57	17
58	13
59	2
60	10
61	71
62	2
65	4
66	2
67	45
68	14
69	58
70	10
71	22
72	2
83	5
84	49
85	236
86	28
87	20
88	3
90	2
97	2
98	2
99	2
100	48
101	8
102	2
103	20
113	2
116	2
117	4
126	2
127	20
129	2
130	14
141	2
143	2
144	8
145	12
174	2
176	1
187	0
