Mass Spectrum: Benzene, [(methylenecyclopropyl)sulfonyl]-
Formula: C10H10O2S
CAS: 78656-83-4
Molecular weight: 194
m/z	intensity
26	60
27	999
29	19
34	3
37	12
38	38
39	153
40	5
41	78
42	5
43	8
44	3
45	45
47	3
48	8
49	17
50	234
51	705
52	216
53	834
54	37
55	18
57	0
58	4
59	5
61	4
62	7
63	21
64	12
65	48
66	20
68	3
69	29
71	8
73	7
74	39
75	29
76	32
77	581
78	345
79	23
80	3
81	15
82	6
84	4
89	3
90	3
91	51
92	4
93	6
94	55
95	5
97	122
98	7
99	3
101	5
102	9
103	11
104	59
105	5
108	3
109	28
110	15
111	4
115	64
116	17
117	5
118	5
123	18
125	571
126	61
127	34
128	31
129	122
130	35
131	5
135	8
137	2
141	8
142	8
145	4
147	3
149	4
152	3
165	3
192	4
194	272
195	31
196	9
