Mass Spectrum: 7-(4-Bromobenzylidene)-3-methyl-3,4-dihydro-2H-[1,3]thiazolo[3,2-a][1,3,5]triazin-6(7H)-one
Formula: C13H12BrN3OS
CAS: 78659-67-3
Molecular weight: 337
m/z	intensity
33	2
34	2
36	1
37	9
38	29
39	78
40	69
42	999
43	288
44	193
45	41
46	5
47	2
50	92
51	59
52	8
53	43
54	79
55	111
56	57
57	152
58	16
59	4
60	3
61	16
62	55
63	138
64	11
65	7
66	41
68	14
69	63
70	10
71	11
72	31
73	10
74	72
75	87
76	33
77	12
79	7
80	16
81	32
82	90
83	15
84	5
85	8
86	26
87	31
89	614
90	44
91	3
93	42
94	5
95	8
96	6
97	40
98	20
99	18
100	17
101	56
102	16
103	5
104	6
105	9
106	22
107	15
108	5
110	0
111	0
114	7
115	5
117	7
119	6
120	1
121	1
123	0
124	2
125	0
127	3
128	11
129	24
131	15
132	78
133	292
134	75
135	20
136	4
138	0
140	0
141	0
143	1
144	0
145	1
146	2
147	13
148	1
149	0
152	0
154	0
155	2
156	1
157	3
158	3
159	27
160	14
161	112
162	17
163	7
164	0
167	16
168	15
169	20
170	7
171	5
172	1
173	0
176	1
180	23
182	27
183	3
185	0
186	1
187	8
188	1
189	1
193	0
194	0
195	0
196	2
198	1
204	0
206	0
207	6
209	19
210	16
212	892
213	122
214	879
215	118
216	46
217	7
218	0
225	2
227	2
237	0
239	18
240	92
241	24
242	92
243	11
244	4
245	0
250	1
252	0
257	2
258	2
259	1
266	2
268	2
282	1
283	1
284	2
285	0
290	0
291	2
292	5
294	215
295	62
296	217
297	50
298	17
299	2
304	0
310	0
324	0
332	0
333	0
334	2
336	76
337	214
338	103
339	208
340	34
341	11
342	1
