Mass Spectrum: 2,4-Hexanediol, 5-methyl-3-nitro-
Formula: C7H15NO4
CAS: 78651-63-5
Molecular weight: 177
m/z	intensity
25	3
26	26
27	316
28	57
29	173
30	73
31	116
33	1
37	9
38	19
39	216
40	33
41	657
42	111
43	999
44	298
45	739
46	28
47	35
48	11
49	1
50	7
51	14
52	7
53	57
54	15
55	202
56	44
57	175
58	135
59	103
60	7
61	17
62	19
63	12
64	1
65	7
66	3
67	28
68	14
69	163
70	194
71	303
72	129
73	356
74	72
75	22
76	7
77	7
78	3
79	9
80	3
81	10
82	4
83	10
84	7
85	19
86	20
87	131
88	234
89	17
90	456
91	67
92	11
93	4
94	1
95	20
96	4
97	13
98	8
99	3
100	12
101	2
104	4
105	6
106	10
107	2
111	3
112	14
113	30
114	4
115	12
116	8
117	2
118	16
119	2
120	0
132	4
133	3
134	46
135	3
