Mass Spectrum: N-Benzyloxycarbonyl-D-aspartic acid
Formula: C12H13NO6
CAS: 78663-07-7
Molecular weight: 267
m/z	intensity
12	8
13	3
14	15
15	38
16	15
17	3
18	11
24	2
25	7
26	44
27	77
28	110
29	45
30	5
31	29
32	3
34	1
35	3
36	6
37	14
38	36
39	124
40	41
41	81
42	176
43	276
44	557
45	23
46	5
49	9
50	92
51	194
52	60
53	49
54	26
55	23
56	6
57	9
58	2
59	3
60	28
61	11
62	26
63	70
64	18
65	163
66	13
67	5
68	7
69	40
70	26
71	8
72	13
73	10
74	32
75	16
76	15
77	447
78	99
79	873
80	88
81	9
82	4
83	6
84	8
85	5
86	12
87	20
88	16
89	86
90	130
91	915
92	95
93	6
94	2
95	3
96	6
97	6
98	8
99	7
100	14
101	2
102	1
103	2
104	3
105	52
106	18
107	911
108	999
109	78
110	6
111	3
112	6
113	12
114	9
115	4
116	4
117	2
118	3
120	1
121	3
122	1
123	5
124	2
125	3
126	1
129	2
130	2
131	1
132	11
133	6
134	1
137	1
138	2
139	1
140	3
141	6
142	1
143	1
144	4
149	1
151	3
152	1
161	1
162	1
165	1
166	1
167	1
168	1
177	5
178	4
179	1
180	1
221	8
222	1
249	82
250	11
251	2
267	1
