Mass Spectrum: 1H-1,2,4-Triazol-5(4H)-one, 1-methyl-3-nitro-4-(3-oxobutyl)-
Formula: C7H10N4O4
CAS: 78674-37-0
Molecular weight: 214
m/z	intensity
33	4
34	0
35	0
37	3
39	27
40	21
43	999
46	37
47	0
49	1
50	1
51	2
53	35
55	223
56	33
57	13
58	19
59	1
60	0
61	0
63	0
67	14
68	14
69	19
71	70
72	3
73	1
74	0
76	0
77	0
78	0
79	0
80	0
82	4
83	5
84	2
85	5
86	2
87	0
88	1
89	0
91	0
93	0
95	3
96	3
97	8
98	9
99	24
100	4
101	0
105	0
108	0
109	0
111	3
112	3
114	18
115	1
116	1
117	2
119	3
120	0
121	1
123	0
124	1
125	2
126	2
128	17
129	4
130	0
133	0
135	0
136	0
137	0
138	0
139	1
140	0
141	0
142	1
144	1
145	4
147	1
149	1
151	1
152	0
153	0
155	3
156	0
157	0
164	0
166	12
168	105
169	7
171	10
172	0
177	0
178	0
179	0
180	0
181	0
182	0
184	39
185	2
186	0
191	0
193	0
195	0
199	0
211	0
213	0
214	0
215	0
