Mass Spectrum: 6,10,14-Trimethyl-2-pentadecanol, TMS derivative
Formula: C21H46OSi
CAS: 78695-23-5
Molecular weight: 342
m/z	intensity
41	60
43	96
55	63
56	39
57	98
69	62
70	29
71	49
73	241
74	23
75	220
83	49
84	14
85	24
96	14
97	48
107	48
117	999
118	120
119	49
327	19
