Mass Spectrum: Octadec-9Z-enyl-nicotinate
Formula: C24H39NO2
CAS: 78695-24-6
Molecular weight: 373
m/z	intensity
41	178
43	229
54	149
55	396
67	200
69	151
78	229
79	297
82	49
83	59
93	49
95	109
96	30
97	29
106	357
107	319
109	40
124	999
125	79
137	20
149	10
150	9
151	39
164	30
165	40
178	120
179	19
192	60
206	60
220	50
221	19
234	30
248	19
260	30
261	19
274	130
275	40
288	169
289	49
302	69
303	19
315	19
316	49
330	29
335	10
344	19
345	10
372	19
373	200
374	69
