Mass Spectrum: 3,7,11,15-Tetramethyl-hexadecyl nicotinate
Formula: C26H45NO2
CAS: 78695-19-9
Molecular weight: 403
m/z	intensity
41	178
42	49
43	290
51	48
55	244
56	99
57	258
69	181
70	62
71	120
78	123
79	121
80	38
81	24
83	88
85	20
97	39
106	194
107	243
124	999
125	72
137	20
151	20
178	19
179	28
192	39
206	19
220	48
248	28
249	19
262	33
276	24
290	59
291	19
318	48
319	20
332	38
346	19
360	39
388	49
389	20
402	10
403	14
