Mass Spectrum: Cyclooctene, 1,2-bis(trimethylsilyloxy)-
Formula: C14H30O2Si2
CAS: 78743-54-1
Molecular weight: 286
m/z	intensity
27	18
29	38
31	5
39	16
40	35
41	38
42	6
43	29
44	28
45	187
46	15
47	11
51	5
53	13
55	36
56	10
57	27
58	8
59	48
60	13
61	17
65	11
66	9
67	21
68	9
69	29
70	9
71	17
72	13
73	999
74	71
75	143
76	7
77	14
78	7
79	28
80	9
81	33
82	8
83	12
84	7
85	13
87	6
88	8
89	3
91	51
92	27
93	8
94	5
95	78
96	11
97	18
98	4
99	10
101	26
102	4
103	18
105	13
106	13
107	11
109	16
110	7
111	10
113	7
115	18
116	8
117	18
119	6
127	11
129	76
130	19
131	37
132	5
133	46
134	7
135	5
138	22
139	13
141	9
142	21
143	59
144	11
145	5
147	482
148	70
149	54
150	5
151	4
153	27
154	10
155	107
156	49
157	17
158	5
165	5
167	38
168	95
169	81
170	120
171	119
172	18
173	21
181	54
182	8
183	35
184	11
185	28
186	6
191	29
195	10
196	75
197	27
198	12
199	4
204	13
213	5
215	7
217	86
218	60
219	18
220	5
229	24
230	17
231	23
232	19
233	4
243	78
244	28
245	13
257	51
258	15
259	6
271	87
272	27
273	9
285	10
286	784
287	203
288	71
289	13
