Mass Spectrum: 5-Amino-1-benzyl-2-methyl-1H-imidazole-4-carboxylic acid amide
Formula: C12H14N4O
CAS: 78750-92-2
Molecular weight: 230
m/z	intensity
33	0
38	2
39	20
40	11
41	20
42	72
43	15
44	34
45	4
50	7
51	21
52	10
53	16
54	17
55	23
56	6
57	3
58	0
61	0
62	3
63	26
65	130
66	11
67	14
68	12
69	8
70	4
71	24
72	1
73	0
74	2
75	3
76	5
77	20
78	8
79	8
80	2
81	4
82	2
83	2
84	2
85	1
86	0
87	1
89	52
91	999
92	76
93	5
94	9
95	3
96	1
97	15
98	134
99	6
100	0
101	1
102	2
103	6
104	11
105	4
106	23
107	4
108	1
109	3
110	5
111	1
112	1
113	0
114	0
115	4
116	12
117	20
118	6
119	1
121	0
122	2
123	8
124	6
125	1
126	0
127	1
128	3
129	3
130	9
131	5
132	4
133	1
134	0
135	0
136	2
137	1
139	56
140	8
141	2
142	8
143	9
144	22
145	7
146	1
149	1
151	0
152	1
153	1
154	3
155	2
156	2
157	3
158	3
159	1
167	0
168	0
169	2
170	6
171	26
172	10
173	2
174	0
182	1
184	51
185	27
186	8
187	4
188	2
189	0
197	2
198	4
199	0
200	2
201	1
202	0
203	0
209	0
211	8
212	44
213	65
214	12
215	1
227	0
228	1
230	558
231	81
232	5
233	0
