Mass Spectrum: Methapyrilene metabolite 1
Formula: C13H17N3S
CAS: 78761-68-9
Molecular weight: 247
m/z	intensity
44	161
51	35
53	42
69	10
71	10
78	101
79	89
97	999
98	72
99	47
107	552
108	49
119	28
134	7
135	13
149	27
167	4
171	10
175	5
176	4
189	85
190	76
191	270
192	32
203	54
204	275
205	48
215	4
247	44
