Mass Spectrum: Acetamide, N-[4,5,6-tris(acetyloxy)-2-cyclohexen-1-yl]-, (1.alpha.,4.alpha.,5.beta.,6.alpha.)-
Formula: C14H19NO7
CAS: 78776-00-8
Molecular weight: 313
m/z	intensity
36	0
38	1
39	13
41	24
42	23
43	999
44	27
45	10
46	1
51	4
52	4
53	17
54	8
55	18
56	37
57	6
58	3
59	4
60	110
61	6
63	1
65	15
66	10
67	24
68	28
69	17
70	7
71	3
72	6
73	8
77	3
78	4
79	2
80	53
81	165
82	45
83	17
84	33
85	151
86	20
88	2
91	0
92	8
93	15
94	13
95	3
96	12
97	10
98	68
99	19
100	2
101	1
102	18
103	3
108	46
109	289
110	240
111	45
112	6
114	7
115	1
122	10
123	8
124	2
125	3
126	67
127	215
128	27
129	2
130	0
133	28
134	12
135	2
136	3
138	0
139	1
140	245
141	39
142	3
143	7
144	2
150	4
151	241
152	181
153	24
154	3
156	1
168	28
169	71
170	13
171	0
182	74
183	19
184	1
186	1
193	9
194	19
195	2
196	0
210	2
211	40
212	10
213	1
254	217
255	28
256	3
