Mass Spectrum: Methyl N-isopropyl-3-phenylpropanimidate
Formula: C13H19NO
CAS: 78827-39-1
Molecular weight: 205
m/z	intensity
40	70
41	310
42	210
43	560
44	610
51	110
57	60
58	999
59	80
60	60
65	110
77	80
78	60
86	120
91	450
100	80
103	30
104	60
105	60
114	60
131	40
132	30
190	110
205	190
