Mass Spectrum: Benzenepropanenitrile, .beta.-oxo-.alpha.-(1,3-dithioxan-2-ylideno)-
Formula: C13H11NOS2
CAS: 78839-23-3
Molecular weight: 261
m/z	intensity
33	0
34	0
35	0
37	3
38	9
39	53
40	5
41	58
42	5
43	0
44	2
45	56
46	37
47	11
48	1
49	3
50	53
51	206
52	15
53	5
54	0
55	0
56	1
57	3
58	6
59	6
60	1
61	2
62	4
63	4
64	4
65	3
66	1
67	0
68	1
69	8
70	22
71	8
72	3
73	10
74	35
75	15
76	23
77	527
78	36
79	2
80	1
81	1
82	16
83	6
84	6
85	5
86	2
87	2
88	6
89	3
90	0
91	1
92	0
93	3
94	2
95	1
96	2
97	1
98	0
99	1
100	3
101	2
102	2
103	2
105	999
106	80
107	5
108	1
109	6
110	36
111	2
112	2
114	23
115	4
116	4
118	0
119	0
120	0
121	2
122	2
123	1
124	0
126	1
127	2
128	2
129	2
130	2
131	1
132	1
133	1
135	0
136	2
137	3
139	0
140	0
141	1
142	1
144	0
145	0
146	1
149	0
150	0
151	0
152	1
153	2
154	1
155	0
156	2
157	0
158	1
159	9
160	1
161	1
162	0
165	4
166	0
167	0
168	0
169	3
170	1
172	0
177	0
182	3
184	15
185	2
186	5
187	1
188	2
189	1
190	0
191	1
195	1
196	3
197	0
200	3
201	4
202	1
203	0
205	2
207	0
210	1
214	28
215	6
216	2
218	0
219	3
220	1
221	0
226	1
228	18
229	3
230	1
232	5
233	7
234	1
235	0
244	0
245	0
261	215
262	36
263	22
264	3
265	1
