Mass Spectrum: 1,4-Dioxaspiro[4.5]decan-6-ol
Formula: C8H14O3
CAS: 78881-14-8
Molecular weight: 158
m/z	intensity
25	1
26	16
27	52
28	32
29	67
30	19
31	34
33	1
37	2
38	7
39	39
40	17
41	75
42	88
43	72
44	26
45	47
46	7
47	3
48	1
49	1
50	5
51	10
52	5
53	23
54	7
55	127
56	27
57	59
58	19
59	3
60	6
61	5
62	3
63	4
64	1
65	7
66	4
67	38
68	20
69	26
70	38
71	19
73	35
74	7
75	2
77	7
78	2
79	10
80	3
81	8
82	2
83	21
84	16
85	40
86	288
87	29
88	5
89	29
90	2
91	4
92	1
93	1
94	2
95	10
96	9
97	24
98	31
99	999
100	88
101	27
102	19
103	2
104	1
105	3
106	2
107	1
108	1
109	1
110	1
111	2
112	13
113	41
114	14
115	51
116	6
117	2
125	2
126	1
127	2
128	11
129	29
130	5
131	1
139	2
140	2
141	19
142	3
143	0
157	5
158	137
159	22
160	4
