Mass Spectrum: 2-Hydroxy-acetophenone pyridin-4-ylcarbonyl hydrazone
Formula: C14H13N3O2
CAS: 789-81-1
Molecular weight: 255
m/z	intensity
78	150
106	999
132	50
134	70
149	59
151	70
240	189
255	260
