Mass Spectrum: Mercaptoethanol, 2TMS derivative
Formula: C8H22OSSi2
CAS: 78921-31-0
Molecular weight: 222
m/z	intensity
35	0
39	2
41	3
42	11
43	81
44	30
45	206
46	15
47	36
48	3
49	1
52	3
53	6
55	10
56	4
57	12
58	31
59	97
60	29
61	38
62	3
63	5
66	21
67	2
69	0
70	5
71	10
73	999
74	97
75	192
76	19
77	31
78	3
79	3
85	5
86	2
87	15
88	4
89	7
90	14
91	14
92	3
93	13
95	2
101	129
102	19
103	104
104	18
105	17
106	2
116	206
117	46
119	126
120	11
121	11
131	25
132	5
133	24
134	5
135	5
147	759
148	120
149	82
150	8
151	4
163	3
165	3
177	13
178	2
179	2
207	240
208	44
209	30
210	4
222	4
