Mass Spectrum: Dimethylsilyl tert-buthylperoxide
Formula: C6H16O2Si
CAS: 78957-19-4
Molecular weight: 148
m/z	intensity
41	383
43	349
45	275
47	78
56	288
57	999
59	130
61	129
75	341
77	147
91	38
103	9
133	39
148	118
