Mass Spectrum: (2R,2'S,3'S)-3'-Methyl-2(2'-carbomethoxy-3'-methylcyclopentyl)-propanoate
Formula: C12H20O4
CAS: 78962-94-4
Molecular weight: 228
m/z	intensity
41	350
43	60
53	130
55	150
56	70
57	100
59	190
65	50
67	210
68	50
69	140
77	60
79	160
80	40
81	999
82	80
83	40
88	320
91	60
93	100
95	50
101	100
107	50
108	130
109	490
113	60
139	60
140	40
141	390
142	60
153	50
168	380
169	70
196	60
197	80
228	10
