Mass Spectrum: 2,6,9-Undecatrione
Formula: C11H18O3
CAS: 78975-91-4
Molecular weight: 198
m/z	intensity
41	66
42	104
43	809
44	56
45	11
46	1
47	3
48	4
49	21
50	3
51	11
52	3
53	26
54	9
55	330
56	76
57	714
58	56
59	25
60	2
61	0
62	1
63	6
64	1
65	9
66	4
67	41
68	25
69	34
70	27
71	376
72	39
73	6
74	1
75	1
76	0
77	7
78	1
79	11
80	4
81	35
82	10
83	198
84	73
85	675
86	57
87	7
88	2
89	0
90	0
91	4
92	1
93	7
94	4
95	161
96	16
97	19
98	20
99	45
100	4
101	1
102	0
103	1
104	0
105	5
106	1
107	11
108	295
109	55
110	41
111	317
112	89
113	999
114	68
115	7
116	1
117	1
118	0
119	1
120	1
121	3
122	24
123	113
124	16
125	8
126	6
127	14
128	62
129	5
130	1
131	0
132	0
133	5
134	1
135	1
136	0
137	8
138	6
139	4
140	5
141	284
142	26
143	3
144	0
145	1
146	0
147	2
148	0
149	1
150	1
151	117
152	12
153	1
154	0
155	14
156	4
157	1
158	0
159	0
160	0
161	0
162	1
163	1
164	0
165	9
166	1
167	0
168	2
169	156
170	18
171	2
172	0
173	0
174	0
175	0
176	0
177	0
178	1
179	4
180	161
181	22
182	2
183	4
184	0
185	0
186	0
187	0
188	0
189	0
191	0
192	0
193	0
194	0
195	0
196	0
197	0
198	1
199	0
200	0
201	0
