Mass Spectrum: Acetic acid, trichloro-, 3-phenylpropyl ester
Formula: C11H11Cl3O2
CAS: 78987-68-5
Molecular weight: 280
m/z	intensity
25	1
26	7
27	12
28	1
29	5
30	1
31	1
35	5
36	30
37	3
38	13
39	40
40	4
41	48
42	3
43	2
45	1
47	7
48	2
49	5
50	17
51	49
52	14
53	6
55	3
57	21
58	14
59	1
60	5
61	2
62	6
63	31
64	8
65	101
66	8
74	6
75	6
76	12
77	84
78	58
79	41
80	4
81	1
82	23
83	10
84	14
85	8
86	4
87	3
89	31
90	18
91	999
92	165
93	9
94	1
101	2
102	13
103	72
104	45
105	56
106	6
107	4
110	12
111	1
112	8
113	2
114	2
115	69
116	22
117	911
118	991
119	253
120	17
121	14
122	3
123	3
125	10
126	2
127	4
128	2
129	3
130	1
131	2
133	2
134	7
135	2
136	1
139	11
140	1
141	4
145	4
153	19
154	5
155	7
156	2
159	2
161	1
163	8
165	1
173	4
175	2
181	3
189	3
191	1
198	2
200	2
209	1
246	2
248	1
280	24
281	3
282	23
283	3
284	8
