Mass Spectrum: Benzamide, N-(2'-ethylphenyl)-
Formula: C15H15NO
CAS: 78987-16-3
Molecular weight: 225
m/z	intensity
27	4
28	3
29	1
38	1
39	9
40	1
41	3
42	1
50	10
51	56
52	8
53	4
54	1
62	1
63	5
64	3
65	10
66	2
74	3
75	4
76	12
77	399
78	34
79	4
80	1
89	3
90	3
91	13
92	3
93	7
94	1
102	2
103	6
104	8
105	999
106	91
107	8
117	2
118	6
119	6
120	230
121	27
122	9
128	1
132	5
134	1
146	1
148	2
152	1
165	1
166	1
167	2
178	1
180	3
181	1
195	1
196	7
197	4
198	1
207	1
208	4
209	2
210	8
211	2
224	4
225	380
226	63
227	5
