Mass Spectrum: 2-[3-Carbethoxypropionamide]-3,4-dicarbethoxy-1-methylpyrrole
Formula: C17H24N2O7
CAS: 78994-94-2
Molecular weight: 368
m/z	intensity
41	2
42	433
43	64
44	19
45	112
46	4
47	7
49	4
50	1
51	12
52	78
53	42
54	53
55	399
56	49
57	27
58	5
59	7
60	7
61	0
63	4
64	21
65	32
66	51
67	44
68	65
69	12
70	7
71	6
72	2
73	148
74	9
75	2
76	2
77	14
78	24
79	22
80	44
81	46
82	14
83	23
84	6
85	3
86	1
87	1
88	8
89	0
90	1
91	27
92	31
93	279
94	91
95	37
96	29
97	12
98	4
99	7
101	999
102	40
103	8
104	2
105	7
106	9
107	16
108	11
109	7
110	11
111	6
112	10
113	1
115	8
116	2
117	0
118	0
119	16
120	23
121	49
122	225
123	44
124	11
125	5
126	0
127	1
129	557
130	32
131	6
132	0
133	6
134	5
135	16
136	10
137	12
138	26
139	29
140	8
141	1
145	0
146	0
147	9
148	33
149	132
150	30
151	17
152	6
153	2
154	1
159	1
161	8
162	1
163	13
164	4
165	87
166	117
167	55
168	11
169	1
173	0
174	1
175	15
176	25
177	23
178	5
179	20
180	5
181	3
182	0
183	2
184	0
185	0
187	1
189	1
190	1
191	2
192	2
193	155
194	825
195	37
196	41
197	1
202	6
203	97
204	26
205	34
206	5
207	11
208	1
209	0
210	0
211	4
212	5
219	2
220	17
221	83
222	12
223	3
225	1
226	1
230	32
231	18
232	4
233	6
234	0
238	1
239	33
240	585
241	70
242	8
243	0
247	3
248	65
249	101
250	22
251	3
253	0
259	0
263	2
266	3
267	9
268	1
275	1
276	27
277	200
278	29
279	4
282	1
284	0
293	1
294	2
295	0
297	0
305	0
310	0
321	1
322	54
323	53
324	9
325	0
326	1
353	1
354	0
367	2
368	78
369	15
370	3
