Mass Spectrum: 3-Carbethoxy-5-carbmethoxy-1,6-dihydro-1-methyl-(5H,8H)pyrrolo[2,3-b]azepine-4,7-dione
Formula: C14H16N2O6
CAS: 78994-91-9
Molecular weight: 308
m/z	intensity
42	999
43	83
44	40
45	92
46	8
47	21
48	2
49	69
50	7
51	110
52	169
53	194
54	115
55	205
56	27
57	59
59	129
60	13
61	5
62	15
63	77
64	68
65	98
66	104
67	92
68	82
69	43
70	9
71	28
72	10
73	13
74	15
75	33
76	29
77	77
78	123
79	83
80	84
81	66
82	31
83	51
84	54
85	18
86	31
88	57
89	3
90	36
91	77
92	95
93	394
94	142
95	38
96	33
97	13
99	47
101	134
103	13
104	31
105	46
106	51
107	43
108	20
109	17
110	15
111	11
112	2
113	37
115	12
116	1
117	35
118	59
119	92
120	72
121	56
122	191
123	62
124	11
125	5
126	7
127	10
129	12
130	6
131	22
132	20
133	27
134	28
135	25
136	21
137	26
138	20
139	7
140	21
141	3
143	0
144	2
145	13
146	49
147	136
148	138
149	236
150	29
151	47
152	9
153	10
154	41
155	5
157	6
158	3
159	9
160	11
161	23
162	12
163	32
164	22
165	21
166	24
167	93
168	57
169	6
171	2
172	0
173	35
174	158
175	374
176	312
177	77
178	16
179	13
180	49
181	129
182	11
183	3
185	2
186	0
187	8
188	6
189	6
190	13
191	59
192	19
193	122
194	45
195	83
196	8
197	3
200	1
201	31
202	358
203	708
204	160
205	30
206	37
207	90
208	9
209	2
210	2
211	4
212	4
215	2
217	5
218	5
219	206
220	69
221	70
222	15
223	3
226	5
228	1
229	6
230	122
231	317
232	53
233	173
234	213
235	169
236	44
237	8
238	1
240	5
244	0
245	1
246	11
247	250
248	275
249	369
250	88
251	62
252	8
253	2
254	0
256	1
260	3
261	15
262	134
263	106
264	23
265	65
266	9
267	2
273	0
274	3
275	19
276	183
277	128
278	19
279	55
280	10
281	1
306	3
307	5
308	442
309	72
310	6
