Mass Spectrum: 2-[3-Carbethoxypropionamide]-3,4-dicarbethoxy-1-benzyloxymethyl pyrrole
Formula: C24H30N2O8
CAS: 78994-93-1
Molecular weight: 474
m/z	intensity
41	27
42	16
43	30
44	16
45	47
46	5
47	18
48	8
52	19
53	17
54	7
55	205
56	20
57	9
59	5
61	1
62	0
63	10
64	7
65	100
66	16
67	7
68	9
69	5
70	1
71	3
73	82
74	6
77	16
78	6
79	28
80	16
81	6
82	5
83	7
88	5
89	13
90	9
91	999
92	90
93	23
94	14
95	3
96	1
97	3
99	3
100	1
101	327
102	13
103	2
105	6
106	4
107	24
108	13
109	3
119	9
120	2
121	3
122	2
123	2
124	3
129	133
130	8
134	6
135	7
136	2
137	3
138	0
147	0
151	17
152	7
153	2
161	2
164	3
165	4
167	0
169	2
170	6
179	9
180	6
193	1
194	3
197	2
198	0
223	0
225	12
226	2
240	15
241	3
270	5
295	2
316	3
