Mass Spectrum: 3,5-Dicarbethoxy-1-benzyloxymethylpyrrolo[2,3-b]azepine-4,7-dione
Formula: C22H24N2O7
CAS: 78994-90-8
Molecular weight: 428
m/z	intensity
41	4
42	8
43	8
44	10
45	2
46	1
49	2
50	2
51	14
52	10
53	12
54	16
55	7
56	1
58	3
59	1
62	2
63	13
65	78
66	7
67	2
68	2
69	3
71	3
72	1
73	1
74	1
75	1
76	3
77	22
78	10
79	17
80	8
81	2
82	2
83	2
85	1
89	15
91	999
92	74
93	3
94	6
95	1
97	2
99	14
102	1
103	2
104	5
105	13
106	10
107	16
108	6
109	2
115	2
116	1
117	2
118	3
119	7
120	3
121	4
122	1
123	3
124	1
125	1
126	1
127	5
129	0
130	1
131	3
132	7
133	6
134	7
135	20
136	2
137	1
138	1
143	1
144	1
145	3
146	3
147	7
148	2
149	2
151	6
152	3
153	2
154	1
156	0
158	2
159	4
160	18
161	40
162	5
163	3
165	3
166	1
167	1
168	2
169	1
170	1
171	1
173	5
174	3
175	3
176	2
177	5
178	8
179	10
180	2
181	1
184	1
186	1
187	30
188	18
189	23
190	4
191	4
192	2
193	3
194	1
195	1
196	1
197	3
198	1
199	1
200	1
201	6
202	5
203	4
204	1
205	4
206	4
207	4
209	1
215	10
216	10
217	7
218	2
219	6
220	3
221	1
222	1
223	3
224	2
225	2
227	1
228	2
229	2
230	2
232	1
233	9
234	3
235	2
237	6
238	2
243	1
244	1
245	3
246	21
247	7
248	5
249	3
250	5
251	6
252	5
253	1
260	2
261	29
262	7
263	9
264	1
265	0
267	1
269	1
271	3
274	11
275	6
276	35
277	7
278	11
279	47
280	14
281	2
291	12
292	3
293	1
294	2
295	4
296	2
297	4
301	1
305	1
306	8
307	8
308	4
309	6
310	2
320	1
321	1
322	23
323	13
324	13
325	17
326	7
327	2
336	2
337	10
338	2
339	2
341	3
351	1
352	12
353	5
354	24
355	39
356	14
357	2
369	5
370	1
380	1
381	1
382	5
383	13
384	3
395	4
396	1
397	1
398	2
399	0
428	70
429	17
430	3
