Mass Spectrum: N-Bromoacetamide
Formula: C2H4BrNO
CAS: 79-15-2
Molecular weight: 137
m/z	intensity
39	4
40	36
41	33
42	111
43	999
44	49
45	5
56	5
57	12
58	74
79	113
80	257
81	119
82	265
83	1
84	1
94	13
95	47
96	14
97	34
98	14
121	5
122	40
123	7
124	34
137	318
138	8
139	327
140	6
