Mass Spectrum: 2-Propenoic acid
Formula: C3H4O2
CAS: 79-10-7
Molecular weight: 72
m/z	intensity
13	1
14	5
15	1
17	4
24	10
25	53
26	287
27	554
28	84
29	47
30	1
31	1
36	2
37	8
38	2
39	1
40	4
41	16
42	17
43	83
44	194
45	388
46	26
47	1
52	16
53	78
54	27
55	878
56	29
57	1
71	52
72	999
73	36
74	4
