Mass Spectrum: Acetic acid, chloro-
Formula: C2H3ClO2
CAS: 79-11-8
Molecular weight: 94
m/z	intensity
13	14
14	30
15	16
16	2
17	5
18	11
25	2
26	1
28	34
29	36
30	4
31	32
32	6
35	15
36	51
37	6
38	18
39	1
40	4
41	12
42	40
43	5
44	20
45	218
46	3
47	28
48	45
49	335
50	999
51	119
52	341
53	4
55	1
56	2
57	2
59	8
60	2
63	1
65	2
76	8
77	31
78	3
79	11
93	1
94	68
95	3
96	23
97	1
