Mass Spectrum: Ethane, nitro-
Formula: C2H5NO2
CAS: 79-24-3
Molecular weight: 75
m/z	intensity
12	3
13	3
14	10
15	21
16	2
24	1
25	6
26	55
27	554
28	58
29	999
30	116
31	1
32	1
38	7
39	14
40	24
41	60
42	7
43	22
44	13
45	4
46	26
55	2
56	3
57	9
59	2
60	5
