Mass Spectrum: Acetic acid, methyl ester
Formula: C3H6O2
CAS: 79-20-9
Molecular weight: 74
m/z	intensity
12	1
13	3
14	12
15	65
16	1
25	1
26	4
27	4
29	68
30	9
31	19
33	1
40	2
41	15
42	125
43	999
44	36
45	18
56	1
59	112
60	3
73	2
74	253
75	10
76	1
