Mass Spectrum: L-Lactic acid
Formula: C3H6O3
CAS: 79-33-4
Molecular weight: 90
m/z	intensity
24	1
25	7
26	47
27	203
28	16
29	302
30	21
31	7
33	0
36	0
37	0
38	0
39	0
40	5
41	6
42	29
43	135
44	17
45	999
46	26
47	8
52	0
53	3
54	0
55	7
56	1
57	1
58	2
59	1
60	1
61	0
63	1
67	0
68	0
69	1
70	0
71	0
72	0
73	1
75	7
76	0
90	3
91	0
