Mass Spectrum: 2-Propenoic acid, 2-methyl-
Formula: C4H6O2
CAS: 79-41-4
Molecular weight: 86
m/z	intensity
14	2
15	3
17	1
18	1
19	1
25	2
26	24
27	43
28	1
29	34
30	1
31	8
36	8
37	87
38	152
39	794
40	230
41	999
42	100
43	84
44	23
45	184
46	2
47	2
49	1
50	2
51	1
52	1
53	40
54	2
55	14
56	1
57	63
58	83
59	1
60	3
66	1
67	1
68	101
69	171
70	2
71	22
72	1
85	48
86	905
87	41
88	2
