Mass Spectrum: Lanost-8-en-3-ol, (3.beta.)-
Formula: C30H52O
CAS: 79-62-9
Molecular weight: 428
m/z	intensity
41	356
43	999
44	30
45	7
49	4
51	4
53	34
55	433
57	359
58	5
59	24
65	12
67	103
69	365
71	189
72	9
73	1
77	31
79	94
81	168
83	184
85	52
86	3
87	1
91	102
93	126
95	251
97	125
98	6
99	14
103	7
105	126
107	151
109	170
111	77
112	2
113	10
115	16
117	40
119	137
121	129
123	86
125	33
127	17
129	32
131	63
133	93
135	132
136	6
137	41
139	13
141	12
143	38
145	83
147	77
149	65
150	9
151	13
152	12
153	18
154	2
155	12
157	33
159	67
161	93
163	54
165	17
166	1
167	5
169	10
171	31
173	55
175	56
176	4
177	14
179	17
180	1
181	3
183	8
185	22
187	59
189	52
190	4
191	15
193	19
197	7
199	23
201	31
203	20
205	20
207	20
208	1
209	1
211	7
213	24
214	4
215	50
216	5
217	10
219	20
220	3
221	4
225	7
227	31
229	36
230	2
231	12
233	16
234	2
235	3
239	5
241	35
243	25
245	17
247	24
248	1
253	6
255	19
256	1
257	11
259	32
261	34
262	1
263	1
266	1
267	3
269	8
271	16
273	42
274	14
275	18
276	5
281	4
283	11
285	6
287	10
288	8
289	3
297	6
299	15
300	2
301	8
303	1
311	4
313	6
315	8
325	5
327	4
329	1
337	1
339	3
341	1
343	4
355	4
371	1
380	1
393	1
395	165
396	54
397	5
409	3
411	12
413	356
414	110
415	17
426	10
427	9
428	95
429	31
430	3
431	2
