Mass Spectrum: 2,3-Butanediol, 2-(p-chlorophenyl)-3-methyl-
Formula: C11H15ClO2
CAS: 79-93-6
Molecular weight: 214
m/z	intensity
41	79
42	19
43	719
44	24
50	29
51	49
57	39
58	49
59	999
60	49
73	14
74	19
75	69
76	19
77	79
78	24
111	74
112	39
113	49
114	19
115	19
120	19
121	409
122	39
125	49
138	34
139	109
140	24
141	99
142	14
143	29
153	69
154	34
155	379
156	449
157	149
158	139
159	19
179	9
180	19
181	69
182	24
183	29
