Mass Spectrum: 1,5-Dibromo-3-phenylhexane
Formula: C12H16Br2
CAS: 79023-47-5
Molecular weight: 318
m/z	intensity
38	38
39	170
40	30
41	172
42	42
43	60
44	17
50	50
51	98
52	33
53	50
54	15
55	63
56	22
57	47
58	13
62	20
63	53
64	28
65	70
66	10
67	20
68	13
69	51
70	20
71	30
74	18
75	18
76	20
77	98
78	75
79	35
80	15
81	20
82	15
83	28
84	13
85	10
87	8
88	10
89	43
90	28
91	999
92	90
93	8
97	18
98	10
99	5
101	11
102	40
103	72
104	93
105	68
106	15
107	20
108	8
109	16
113	119
114	18
115	193
116	100
117	314
118	61
119	169
120	9
121	10
125	18
126	18
127	45
128	99
129	127
130	68
131	518
132	69
133	7
141	18
142	15
143	32
144	8
145	8
158	20
159	18
160	4
169	31
170	4
171	29
172	5
196	5
197	154
198	31
199	146
200	29
210	5
211	40
212	8
213	39
214	4
238	18
239	22
240	21
241	22
318	28
319	4
320	54
321	7
322	27
323	4
