Mass Spectrum: 1,2-Dithiolane-1-oxide
Formula: C3H6OS2
CAS: 79032-16-9
Molecular weight: 122
m/z	intensity
26	32
27	119
29	29
31	10
33	10
34	10
35	8
36	4
37	19
38	37
39	237
40	73
41	999
42	437
43	29
44	39
45	421
46	302
47	111
48	68
49	18
50	12
55	6
57	117
58	48
59	91
60	34
61	15
62	5
63	28
64	64
65	4
66	64
68	8
69	21
71	41
72	17
73	511
74	201
75	33
76	20
77	9
78	16
80	19
81	13
82	8
94	255
95	8
96	26
103	11
105	28
106	26
107	3
122	868
123	51
124	73
125	4
