Mass Spectrum: Methyl 2-[ethoxy(methoxy)amino]-2-methylpropanoate  #
Formula: C8H17NO4
CAS: 79055-32-6
Molecular weight: 191
m/z	intensity
29	105
30	238
31	48
41	32
42	23
43	23
44	24
45	56
56	929
57	55
58	40
59	283
62	315
69	169
70	96
71	41
73	355
74	81
87	106
88	130
90	999
91	24
101	260
102	542
103	33
104	33
116	8
130	202
132	493
133	15
145	16
160	41
162	120
176	8
191	40
