Mass Spectrum: 3,11-Diketo-lupan-20-ol
Formula: C30H48O3
CAS: 79081-62-2
Molecular weight: 456
m/z	intensity
81	770
95	999
189	630
205	230
207	380
233	770
273	210
286	140
299	340
370	120
398	280
410	90
423	100
438	620
456	60
