Mass Spectrum: 11.alpha.-Acetoxy-3-keto-lupan-20-ol
Formula: C32H52O4
CAS: 79081-61-1
Molecular weight: 500
m/z	intensity
123	999
189	140
195	380
203	340
216	120
255	120
269	100
318	220
339	120
379	100
382	60
407	230
422	780
482	20
