Mass Spectrum: Tritriacontan-3-one
Formula: C33H66O
CAS: 79097-23-7
Molecular weight: 478
m/z	intensity
29	200
43	610
57	999
72	70
85	210
99	170
113	140
127	70
141	70
155	30
169	30
183	30
197	30
211	30
225	30
253	30
267	30
281	30
295	30
309	30
323	30
337	30
449	70
478	140
