Mass Spectrum: Pentatriacontan-3-one
Formula: C35H70O
CAS: 79097-22-6
Molecular weight: 506
m/z	intensity
29	170
43	830
57	999
72	60
85	330
99	110
113	110
127	80
129	280
141	60
155	60
169	60
183	60
185	110
197	60
211	60
225	60
239	60
253	60
477	330
506	110
