Mass Spectrum: N-Methyl-2-(trimethylsilyl)-2,3-butadienanilide
Formula: C14H19NOSi
CAS: 79139-14-3
Molecular weight: 245
m/z	intensity
39	140
43	130
45	210
51	150
59	160
67	150
73	999
74	130
75	180
77	430
83	190
106	530
107	810
111	260
130	100
131	100
134	180
139	160
144	230
147	830
148	160
149	110
154	110
173	130
230	150
244	560
245	170
246	60
