Mass Spectrum: N,N'-Dodecamethylenebis(p-toluenesulfonamide)
Formula: C26H40N2O4S2
CAS: 79130-39-5
Molecular weight: 508
m/z	intensity
34	74
35	26
36	126
38	102
40	525
41	308
42	130
43	386
44	388
45	78
48	43
50	63
51	95
53	45
55	318
56	153
57	90
58	31
60	86
63	56
64	73
65	203
67	61
68	30
69	114
70	85
71	52
72	123
73	149
74	39
75	29
77	156
78	32
79	33
81	58
82	27
83	51
84	54
86	93
87	45
89	64
91	999
92	113
96	33
97	35
100	65
101	30
105	238
106	38
107	34
109	30
111	45
114	57
120	30
128	51
139	49
142	49
155	485
156	73
157	29
170	93
171	44
172	84
182	58
184	220
185	28
212	29
241	171
353	188
354	44
