Mass Spectrum: 4-Pentenoic acid, 2-formyl-2-methyl-, ethyl ester
Formula: C9H14O3
CAS: 79164-14-0
Molecular weight: 170
m/z	intensity
25	38
27	302
28	40
29	589
30	17
31	42
33	1
37	6
38	19
39	323
40	74
41	999
42	99
43	310
44	23
45	116
46	5
47	13
50	11
51	26
52	14
53	123
54	29
55	202
56	114
57	134
58	35
59	27
60	15
61	4
62	3
63	7
64	2
65	47
66	29
67	320
68	264
69	812
70	104
71	86
72	33
73	62
74	16
75	10
76	4
77	18
78	7
79	51
80	20
81	58
82	31
83	261
84	39
85	58
86	27
87	106
88	14
89	3
90	1
91	4
93	9
94	4
95	192
96	205
97	335
98	38
99	80
100	45
101	16
102	10
103	2
104	5
105	3
106	4
107	5
108	2
109	14
110	8
111	14
112	9
113	261
114	428
115	63
116	6
117	1
120	3
121	1
122	1
123	7
124	34
125	28
126	11
127	24
128	20
129	14
130	5
131	5
133	1
135	1
139	3
140	7
141	103
142	327
143	37
144	4
152	7
153	2
154	1
155	4
156	1
169	1
171	7
