Mass Spectrum: 2-Cyclopenten-1-ol, 1-(1-bromo-2-ethoxycycloprop-1-yl)-
Formula: C10H15BrO2
CAS: 79209-33-9
Molecular weight: 246
m/z	intensity
39	180
41	90
43	70
47	999
51	60
53	90
55	120
63	40
65	200
66	50
67	80
75	370
77	280
78	40
79	70
81	40
83	230
91	890
92	520
93	630
94	50
95	30
103	60
120	30
121	250
176	110
177	230
178	120
179	240
