Mass Spectrum: (.+/-.)-5-Chloro-2-(2-propenyl)pentanal
Formula: C8H13ClO
CAS: 79228-14-1
Molecular weight: 160
m/z	intensity
51	40
53	150
54	80
55	999
56	230
63	20
65	40
67	200
68	60
69	100
70	30
75	30
77	60
79	50
81	60
83	480
84	330
85	20
89	30
91	20
93	20
95	50
97	120
98	20
105	140
107	40
118	120
120	30
131	30
133	10
