Mass Spectrum: 1,1,1,4,4,5,5,5-Octafluoro-2-trifluoromethylpentane-3-thione
Formula: C6HF11S
CAS: 79272-22-3
Molecular weight: 314
m/z	intensity
44	51
45	32
50	42
51	22
57	23
63	703
64	25
65	43
69	999
70	11
75	73
76	25
82	21
85	32
87	65
93	3
94	93
100	34
106	45
107	354
108	25
109	22
113	287
114	32
115	44
119	54
124	21
125	57
126	76
137	23
143	21
144	29
145	25
157	21
163	465
164	28
165	32
175	122
176	11
177	18
194	25
195	701
196	42
197	56
207	6
213	8
245	7
294	7
295	10
314	186
315	19
316	11
