Mass Spectrum: 2'-Chloro-5-[[7-chloro-4-quinolinyl]amino]-3-[[diethylamino]methyl]-[1,1'-biphenyl]-2-ol, N-oxide
Formula: C26H25Cl2N3O2
CAS: 79286-99-0
Molecular weight: 481
m/z	intensity
41	47
42	142
43	49
44	199
49	19
50	9
51	29
52	16
53	12
54	20
55	25
56	117
57	32
58	999
59	31
63	21
65	8
68	11
69	10
70	19
71	28
72	208
73	288
74	105
75	34
76	11
77	26
78	18
84	20
85	11
86	48
87	12
88	9
89	16
99	60
100	24
101	34
102	19
106	10
107	11
111	17
112	14
113	28
114	22
115	23
119	14
121	9
123	15
124	11
125	25
126	57
127	54
128	32
132	17
133	13
134	14
135	51
136	32
137	36
138	29
139	74
140	47
141	34
145	27
146	9
147	64
149	22
150	37
151	37
152	61
153	27
154	22
155	17
157	11
158	23
159	12
160	25
161	18
162	56
163	39
164	47
165	32
166	17
167	16
168	56
169	20
171	12
172	32
173	18
175	10
176	9
177	19
178	44
179	37
180	13
181	17
182	12
183	12
186	15
187	9
188	11
189	17
190	13
191	13
192	11
193	8
195	12
196	11
200	12
201	9
202	12
203	9
204	11
205	11
206	8
207	9
213	8
214	11
215	55
216	25
217	13
218	19
225	29
226	25
227	15
233	15
234	9
239	15
240	9
241	8
251	10
252	16
253	21
254	12
255	10
264	11
265	10
266	11
267	9
278	10
279	30
280	18
281	14
289	11
290	13
291	21
292	46
293	57
294	30
295	8
301	8
302	8
303	8
307	12
308	35
309	27
310	14
313	15
314	10
315	19
316	10
317	9
319	9
320	12
321	44
322	71
323	20
326	23
327	35
328	47
329	36
330	20
331	11
341	10
342	100
343	61
344	55
345	49
346	15
347	11
355	50
356	33
357	162
358	81
359	63
360	29
361	9
362	10
363	24
364	14
365	19
370	8
371	31
372	15
373	46
374	15
375	15
379	16
380	8
381	11
387	10
389	15
390	20
391	41
392	316
393	118
394	225
395	72
396	52
397	13
400	28
402	10
407	34
408	261
409	80
410	190
411	45
412	42
413	9
424	16
426	11
434	10
435	25
436	11
437	16
463	22
464	12
465	162
466	49
467	105
468	27
469	20
