Mass Spectrum: 6-Chloro-3H-spiro[1-benzopyran-2,4'-piperidine]-4-one
Formula: C13H14ClNO2
CAS: 792895-79-5
Molecular weight: 251
m/z	intensity
35	9
36	5
37	9
38	20
39	216
40	94
41	208
42	398
43	149
44	73
50	96
51	127
52	47
53	218
54	45
55	71
56	256
57	78
61	88
62	194
63	506
64	42
65	64
66	23
67	124
68	68
69	40
72	23
73	42
74	58
75	69
77	47
79	19
80	65
81	34
82	298
89	21
91	19
92	11
94	41
95	29
96	999
97	93
98	118
99	68
100	42
101	30
112	11
126	283
127	43
128	83
129	15
154	287
155	598
156	94
157	177
158	3
174	10
186	8
187	17
216	11
222	21
224	7
251	217
252	33
253	71
254	11
