Mass Spectrum: 4-[[7-Chloro-4-quinolinyl]amino]-2-[[diethylamino]methyl]-6-(p-trifluoromethylphenyl)phenol
Formula: C27H25ClF3N3O
CAS: 79287-56-2
Molecular weight: 499
m/z	intensity
42	151
43	40
44	189
45	6
46	4
47	3
49	19
50	5
51	20
52	8
53	8
54	16
55	17
56	66
58	999
59	28
63	8
65	6
66	13
67	7
68	5
69	17
70	13
71	11
72	250
73	135
74	544
75	32
77	11
78	7
81	4
82	5
83	6
84	15
86	70
87	5
89	5
91	11
95	5
97	4
99	30
100	10
101	9
102	6
106	3
109	9
111	11
113	7
114	6
115	10
119	4
120	10
123	7
124	4
125	6
126	22
127	27
128	15
129	4
133	20
135	37
136	7
137	14
138	10
139	16
140	13
141	17
142	6
145	9
146	10
147	30
149	4
150	29
151	27
152	47
153	18
154	5
155	5
157	5
158	5
159	7
161	48
162	11
163	23
164	28
165	22
166	14
167	15
168	7
169	8
170	16
171	23
172	4
173	6
175	6
176	9
177	16
178	19
179	22
180	8
181	8
182	7
183	11
186	35
188	11
189	25
190	15
191	13
192	9
193	6
194	5
195	10
196	24
200	4
201	15
202	15
203	22
204	15
205	5
206	8
207	6
209	8
213	17
214	9
215	14
216	8
217	12
218	26
219	9
220	6
221	7
224	4
225	4
226	4
227	6
228	7
229	3
232	14
233	4
235	4
236	4
238	4
239	10
240	6
242	122
250	121
252	15
253	29
254	10
255	10
264	9
265	8
266	5
267	4
279	8
291	5
292	15
293	25
294	16
295	4
321	6
322	8
323	5
326	5
327	10
328	12
329	14
330	6
331	4
335	8
336	4
341	3
342	8
343	5
344	3
347	5
348	4
349	5
356	5
357	26
358	11
359	13
360	11
361	24
362	60
363	31
364	10
370	6
371	9
372	5
373	5
375	3
376	8
377	7
383	18
384	5
385	7
389	7
390	14
391	27
392	14
393	4
395	4
396	4
397	87
398	36
399	31
400	11
401	6
407	9
409	7
410	9
411	8
412	9
413	5
425	127
426	570
427	233
428	219
429	69
430	16
470	3
480	10
482	4
484	5
498	22
499	280
500	89
501	97
502	26
503	4
