Mass Spectrum: 5-[[7-Chloro-4-quinolinyl]amino]-3-[[diethylamino]methyl]-4'-fluoro-1,1'-biphenyl-2-ol
Formula: C26H25ClFN3O
CAS: 79287-19-7
Molecular weight: 449
m/z	intensity
41	69
42	180
43	63
44	370
45	13
46	2
47	5
48	2
49	2
50	3
51	1
52	7
53	3
54	11
55	6
56	72
57	15
58	999
59	45
60	1
61	0
62	1
63	2
64	1
65	1
66	2
67	1
68	4
69	3
70	8
71	4
72	211
73	382
74	92
75	7
76	1
77	1
78	1
81	1
82	1
83	2
84	16
85	0
86	18
87	1
88	2
89	2
90	0
94	0
95	2
96	2
97	0
98	0
99	5
100	2
101	3
102	1
107	0
109	3
111	2
114	1
115	1
116	1
120	5
121	2
123	4
124	1
125	2
126	3
127	3
128	1
129	1
133	6
134	2
135	2
136	2
137	2
138	1
139	1
140	1
141	1
143	2
144	0
145	1
146	4
147	2
149	2
150	3
151	3
152	2
153	1
154	0
155	1
156	1
157	2
159	5
160	1
161	1
162	5
163	3
164	4
165	1
166	1
167	1
168	0
169	0
170	7
171	6
172	2
174	0
177	1
178	4
179	5
180	1
181	4
182	0
183	1
184	0
185	1
186	2
187	1
188	3
189	3
190	1
191	1
192	1
197	1
199	8
200	8
201	2
202	1
203	0
204	0
207	3
208	0
214	2
215	4
216	0
217	9
218	6
224	0
225	6
226	0
227	0
228	0
229	1
230	0
239	1
241	1
245	0
252	2
253	3
254	1
255	1
257	0
273	0
282	0
283	0
284	0
285	2
286	0
288	1
289	0
292	0
293	0
297	2
298	1
299	1
307	0
309	1
310	4
311	9
312	16
313	7
314	1
320	1
321	2
322	1
323	1
324	0
325	0
326	2
327	1
328	1
333	5
334	1
335	2
339	1
340	3
341	6
342	3
343	0
344	0
345	2
346	4
347	25
348	10
349	10
350	3
357	0
358	0
359	0
360	3
361	3
362	2
363	1
364	2
365	0
373	0
375	29
376	189
377	65
378	74
379	20
380	5
381	0
390	0
391	0
392	2
394	1
419	2
420	0
421	0
448	1
449	78
450	24
451	28
452	7
453	1
