Mass Spectrum: 3-Aminopyrrolidine
Formula: C4H10N2
CAS: 79286-79-6
Molecular weight: 86
m/z	intensity
33	0
39	52
40	42
41	140
42	378
43	999
44	519
45	13
50	1
51	4
52	10
53	5
54	23
56	250
57	60
58	11
59	1
63	0
64	0
65	0
66	2
67	10
68	63
69	147
70	18
71	41
72	1
77	0
79	4
80	8
81	4
82	8
83	4
84	3
85	26
86	92
87	5
