Mass Spectrum: 5-[[7-Chloro-4-quinolinyl]amino]-3-[[dimethylamino]methyl-4'-methoxy[1,1'-biphenyl]-2-ol
Formula: C27H28ClN3O2
CAS: 79287-07-3
Molecular weight: 461
m/z	intensity
42	108
43	33
44	169
49	23
51	15
54	8
55	8
56	43
58	999
59	32
67	5
70	10
72	144
73	349
74	46
77	13
78	14
81	9
83	6
84	29
86	31
89	3
91	5
106	8
108	3
109	3
111	3
115	4
117	3
120	3
121	8
124	5
126	4
127	11
128	11
132	3
133	3
134	6
135	17
136	3
139	12
140	13
141	8
145	3
146	4
148	44
149	13
150	3
152	12
155	5
160	3
161	4
162	43
163	8
164	25
165	3
167	8
169	3
171	13
176	7
177	3
178	67
179	19
180	7
183	12
189	3
190	31
191	7
194	4
195	9
197	21
199	4
206	35
208	4
211	31
212	30
218	3
222	3
223	7
231	40
236	21
251	125
252	35
253	10
254	11
255	7
279	12
280	5
281	19
282	3
289	3
291	4
292	3
293	17
294	13
302	4
305	3
309	16
310	4
315	16
316	12
317	7
324	13
325	4
327	7
328	12
329	13
330	3
344	7
345	24
346	6
347	7
352	5
353	4
356	5
357	10
359	49
360	17
361	18
373	9
374	9
375	3
387	51
388	620
389	185
390	229
391	61
392	13
460	13
461	229
462	74
463	85
464	24
465	3
