Mass Spectrum: N(5)-[[3,4-Dichlorophenyl]methyl]-2,4,5-pyrimidinetriamine
Formula: C11H11Cl2N5
CAS: 79318-71-1
Molecular weight: 283
m/z	intensity
41	12
42	53
43	313
44	9
45	1
49	4
50	13
51	11
52	13
53	32
54	42
55	157
56	9
57	5
61	4
62	23
63	47
64	4
65	3
66	6
67	12
68	33
69	38
70	27
71	2
72	3
73	23
74	12
75	22
76	2
77	2
78	1
80	5
81	19
82	111
83	12
84	4
85	5
86	8
87	13
88	4
89	77
90	5
91	1
92	1
94	12
95	2
96	6
97	262
98	12
99	15
100	2
101	3
102	1
107	5
108	1
109	15
110	9
111	7
112	1
113	1
114	3
115	1
119	2
121	1
123	59
124	999
125	82
126	9
127	3
133	12
134	3
135	1
136	38
137	4
138	3
140	1
142	1
145	2
146	1
147	1
148	2
149	1
150	2
151	3
157	2
159	84
161	61
162	3
163	9
172	2
174	2
176	2
184	2
186	2
238	1
249	2
280	2
281	7
282	4
283	84
284	14
285	52
286	6
287	8
