Mass Spectrum: 2-(Dimethyl-phosphinoyl)-benzoic acid
Formula: C9H11O3P
CAS: 79317-57-0
Molecular weight: 198
m/z	intensity
38	23
39	115
40	13
41	20
43	13
44	41
45	95
46	23
47	239
48	26
49	91
50	141
51	158
52	17
53	22
55	10
56	9
57	31
59	16
61	13
62	37
63	183
64	30
65	167
66	16
68	12
69	40
73	12
74	49
75	49
76	105
77	320
78	46
79	45
80	13
81	15
83	16
89	44
90	77
91	999
92	213
93	25
94	10
95	36
103	9
104	34
105	43
107	34
108	10
109	36
111	8
118	179
119	22
120	9
121	82
122	9
123	13
137	39
139	345
140	27
153	24
154	440
155	62
165	32
167	15
180	17
181	32
183	567
184	48
198	28
