Mass Spectrum: 1-(5-Acetyl-4-amino-2-hydroxyphenyl)ethanone
Formula: C10H11NO3
CAS: 79324-45-1
Molecular weight: 193
m/z	intensity
29	45
38	32
39	140
40	135
41	94
42	287
43	999
44	102
50	14
51	58
52	45
53	61
54	14
55	22
62	8
63	50
64	29
65	86
66	47
67	76
68	53
75	31
77	91
78	22
79	64
80	14
82	19
91	28
92	15
93	24
94	5
104	10
105	14
106	260
107	151
108	130
109	6
120	29
121	6
122	36
132	15
133	8
134	142
135	26
136	72
148	15
149	137
150	385
151	32
164	11
176	312
177	30
178	755
179	75
191	111
192	889
193	768
194	85
