Mass Spectrum: 1,2,4,5-Tetrazin-3-amine
Formula: C2H3N5
CAS: 79329-74-1
Molecular weight: 97
m/z	intensity
39	17
40	75
41	228
42	999
43	43
44	28
49	6
54	3
55	17
56	13
66	5
69	55
70	5
96	11
97	110
98	11
