Mass Spectrum: Benzeneacetic acid, .alpha.-cyano-.alpha.-methyl-, methyl ester
Formula: C11H11NO2
CAS: 79341-72-3
Molecular weight: 189
m/z	intensity
26	19
27	65
29	63
30	18
31	10
34	4
37	10
38	23
39	77
40	53
41	21
42	31
43	59
44	90
45	12
47	5
49	8
50	99
51	218
52	71
53	18
54	5
55	10
56	6
57	11
58	5
59	167
60	5
61	15
62	35
63	84
64	25
65	28
66	6
67	4
69	6
70	3
71	5
73	8
74	47
75	59
76	68
77	417
78	211
79	31
80	4
81	38
82	29
83	6
84	3
85	6
86	10
87	17
88	28
89	35
90	16
91	32
92	8
93	4
94	3
95	6
96	4
97	4
98	6
99	64
100	7
101	34
102	125
103	758
104	486
105	94
106	9
107	3
108	3
109	31
110	8
111	10
112	2
113	6
114	13
115	21
116	9
117	11
118	18
119	11
120	44
121	13
122	3
123	3
125	12
126	7
127	40
128	48
129	95
130	999
132	23
133	5
135	15
137	14
138	7
139	6
141	13
142	3
143	4
144	72
145	12
146	13
147	4
148	71
149	29
150	2
153	6
154	3
155	65
156	5
157	298
158	40
159	4
161	7
162	16
163	5
164	8
174	3
188	3
189	245
190	32
191	2
