Mass Spectrum: Carbamothioic acid, [[(4-methylbenzoyl)amino]carbonyl]-, S-methyl ester
Formula: C11H12N2O3S
CAS: 79340-20-8
Molecular weight: 252
m/z	intensity
26	7
27	14
28	22
29	16
30	1
32	2
33	3
34	1
35	0
36	0
37	5
38	11
39	73
40	6
41	18
42	26
43	114
44	22
45	74
46	20
47	159
48	115
49	9
50	24
51	35
52	10
53	4
54	0
55	0
56	0
59	6
60	1
61	5
62	17
63	52
64	14
65	172
66	9
67	0
69	0
70	48
71	1
72	0
73	1
74	5
75	30
76	6
77	15
78	7
79	3
80	0
84	0
85	1
86	3
87	4
88	3
89	50
90	42
91	484
92	36
93	2
94	0
99	0
102	1
103	2
104	6
105	1
106	4
107	1
108	0
111	1
113	0
114	0
115	0
116	13
117	22
118	16
119	999
120	111
121	8
122	0
124	0
130	0
132	8
133	1
134	1
135	10
136	1
137	0
139	3
140	0
141	1
144	0
150	0
155	0
159	0
160	2
161	141
162	17
163	1
165	0
176	1
177	0
178	0
181	0
183	0
204	10
205	387
206	47
207	4
208	0
225	1
227	0
252	1
253	0
