Mass Spectrum: 4-Pyridinamine, N-acetyl-3-nitro-
Formula: C7H7N3O3
CAS: 79371-42-9
Molecular weight: 181
m/z	intensity
43	999
52	120
53	40
64	50
65	50
66	100
79	60
93	160
122	50
135	150
139	280
140	40
153	80
154	6
180	2
181	60
182	10
