Mass Spectrum: Melcanthin E
Formula: C22H28O9
CAS: 79405-86-0
Molecular weight: 436
m/z	intensity
43	750
71	999
77	150
83	236
91	160
128	259
149	87
161	137
170	9
211	125
228	237
256	196
260	109
376	7
