Mass Spectrum: .beta.-d-Xylo-hexopyranoside, methyl 3,4,6-trideoxy-3-(dimethylamino)-, 2-acetate
Formula: C11H21NO4
CAS: 79403-99-9
Molecular weight: 231
m/z	intensity
27	19
28	13
29	42
30	20
31	10
33	18
39	30
40	8
41	82
42	143
43	392
44	95
45	82
46	16
51	7
52	4
53	13
54	8
55	66
56	80
57	43
58	115
59	21
61	30
65	7
66	4
67	23
68	23
69	26
70	81
71	999
72	291
73	182
74	182
75	9
76	4
77	13
79	8
81	14
82	44
83	27
84	387
85	120
86	101
87	353
88	44
89	5
91	10
93	6
94	9
95	20
96	22
97	38
98	714
99	215
100	255
101	42
102	7
103	5
105	17
109	6
110	8
111	10
112	52
113	18
114	201
115	29
116	45
117	163
118	12
119	5
122	7
126	9
127	233
128	38
129	24
130	54
131	6
140	329
141	44
142	14
143	15
144	21
145	5
146	10
156	39
157	8
158	34
159	7
167	8
170	34
171	106
172	32
173	6
186	6
188	62
189	9
200	48
201	7
216	13
231	96
232	17
