Mass Spectrum: 2-Hexen-1-ol, 5-[[(1,1-dimethylethyl)dimethylsilyl]oxy]-, (E)-(.+-.)-
Formula: C12H26O2Si
CAS: 79414-08-7
Molecular weight: 230
m/z	intensity
26	0
27	17
28	3
29	29
30	0
31	9
38	0
39	18
40	3
41	50
42	5
43	28
44	4
45	31
46	2
47	32
48	1
49	1
50	1
51	3
52	1
53	10
54	5
55	19
56	4
57	41
58	21
59	48
60	8
61	20
62	1
63	1
65	3
66	1
67	8
68	1
69	4
70	2
71	2
72	4
73	372
74	36
75	595
76	45
77	34
78	1
79	6
80	1
81	17
82	7
83	8
84	1
85	6
86	2
87	10
88	1
89	2
91	1
92	0
93	1
94	0
95	1
96	1
97	5
98	2
99	10
100	2
101	15
102	6
103	48
104	5
105	13
106	1
107	0
109	1
110	0
111	2
112	2
113	9
114	1
115	72
116	9
117	13
118	2
119	999
120	41
121	18
122	1
123	0
125	1
126	0
127	6
128	2
129	6
130	1
131	5
132	1
133	1
139	1
141	2
142	0
143	8
144	1
145	1
147	5
148	0
151	0
152	0
153	0
154	0
155	3
156	1
157	1
158	0
159	215
160	31
161	19
162	2
163	0
165	0
166	0
167	0
168	0
169	0
170	0
171	0
172	0
173	3
174	0
175	0
178	0
180	0
181	0
182	0
183	0
185	0
186	0
189	0
191	0
194	0
197	0
200	0
205	0
206	0
207	0
209	0
211	0
212	0
215	2
216	0
217	0
218	0
223	0
224	0
229	0
