Mass Spectrum: 2-Hexenal, 5-(1-ethoxyethoxy)-, [R*,S*-(E)]-(.+-.)-
Formula: C10H18O3
CAS: 79414-09-8
Molecular weight: 186
m/z	intensity
26	10
27	103
28	24
29	116
30	12
31	45
37	2
38	6
39	84
40	26
41	244
42	63
43	234
44	90
45	878
46	32
47	62
50	3
51	9
52	5
53	37
54	11
55	147
56	15
57	27
58	10
59	32
60	2
61	36
63	3
65	11
66	7
67	51
68	19
69	216
70	75
71	35
72	50
73	999
74	79
75	75
76	4
77	11
78	3
79	48
80	6
81	65
82	9
83	16
84	6
85	8
86	2
87	10
89	21
91	6
93	4
94	2
95	20
96	18
97	454
98	52
99	20
100	2
101	19
103	3
105	6
107	3
111	3
112	2
113	4
115	10
116	2
117	72
118	5
122	2
123	3
125	3
127	2
129	5
141	71
142	7
143	2
145	3
166	2
171	34
172	3
