Mass Spectrum: 1,1-Ditrimethylsilyl,-2,3,4,5-tetraphenyl-germacyclopenta-2,4-diene
Formula: C34H38GeSi2
CAS: 79411-53-3
Molecular weight: 576
m/z	intensity
35	7
39	30
41	10
43	29
45	92
47	3
51	74
52	8
53	2
55	5
58	34
59	17
63	25
65	177
66	7
70	3
71	13
73	999
74	78
75	43
77	349
79	24
86	3
89	49
91	869
92	51
102	18
103	18
104	8
105	8
115	21
117	3
119	3
126	4
128	5
131	9
133	17
135	7
139	8
145	5
147	38
148	16
149	13
151	53
153	6
159	2
160	2
163	11
165	78
166	16
167	5
176	25
178	132
179	61
180	26
181	15
189	19
191	56
192	7
202	10
203	10
204	3
235	5
237	10
239	6
252	13
253	6
265	12
267	17
269	22
279	5
280	3
358	7
360	5
