Mass Spectrum: Silane, trimethyl(2-methyl-2,4-cyclopentadien-1-yl)-
Formula: C9H16Si
CAS: 79410-05-2
Molecular weight: 152
m/z	intensity
24	1
26	0
27	6
29	18
31	9
36	3
39	6
40	0
41	11
42	4
43	40
44	18
45	64
46	6
47	4
49	2
50	3
51	6
52	4
53	17
54	5
55	15
56	3
57	10
58	15
59	160
60	12
61	6
63	6
65	12
66	4
67	16
68	4
69	13
70	2
71	6
72	14
73	999
74	125
75	45
76	2
77	25
78	10
79	22
80	7
81	4
82	4
83	25
84	2
85	5
91	9
92	7
93	8
94	3
95	25
96	10
97	13
105	9
106	4
107	13
108	2
109	41
110	6
111	6
119	6
120	2
121	13
122	9
123	5
134	2
135	10
136	6
137	225
138	43
139	11
140	3
151	3
152	251
153	42
154	14
