Mass Spectrum: Benzaldehyde, 4-benzyloxy-2-fluoro-5-methoxy-
Formula: C15H13FO3
CAS: 79418-72-7
Molecular weight: 260
m/z	intensity
41	10
42	1
43	4
44	1
45	1
47	1
48	0
49	4
50	11
51	20
52	4
53	3
54	0
55	2
56	2
57	9
58	0
59	4
61	2
62	7
63	24
65	131
66	6
67	1
68	3
69	17
70	17
71	4
72	1
73	1
74	2
75	5
76	1
77	9
78	2
79	2
80	1
81	10
82	4
83	11
84	4
85	5
86	2
87	1
89	26
91	999
92	26
93	6
94	3
95	7
96	2
97	33
98	8
99	2
101	0
103	0
104	0
105	3
106	0
107	1
109	3
110	3
111	1
112	1
113	8
114	0
115	0
119	1
120	0
121	1
122	1
123	1
124	0
125	1
126	2
127	2
129	0
133	1
134	0
137	6
138	2
139	3
140	2
141	1
146	0
147	0
149	0
150	0
151	0
152	0
153	0
154	0
155	0
157	0
159	1
160	0
165	1
166	0
167	4
168	3
169	5
170	2
171	1
178	0
179	0
180	0
181	5
182	0
183	0
185	0
186	0
187	0
195	0
199	1
200	0
215	0
227	0
240	1
241	0
242	0
243	0
259	1
260	130
261	21
262	2
