Mass Spectrum: Methyl 1-trimethylsilyl-2-ethyl-cyclopropene-3-carboxylate
Formula: C10H18O2Si
CAS: 79427-46-6
Molecular weight: 198
m/z	intensity
43	87
44	27
45	161
55	23
57	49
59	216
65	39
66	358
67	47
73	799
74	72
75	64
79	151
83	52
85	16
89	241
94	999
95	81
99	39
139	159
140	19
155	19
183	100
184	11
198	103
199	16
