Mass Spectrum: 2,4-Octadienoic acid, 7-hydroxy-, 2,2,2-trichloroethyl ester
Formula: C10H13Cl3O3
CAS: 79427-04-6
Molecular weight: 286
m/z	intensity
25	2
26	19
27	80
28	13
29	47
30	2
31	49
33	0
35	11
36	71
37	5
38	25
39	131
40	59
41	131
42	31
43	193
44	28
45	999
46	27
47	10
48	7
49	12
50	11
51	39
52	14
53	40
54	20
55	88
56	10
57	21
58	11
59	2
60	9
61	34
62	13
63	22
64	8
65	154
66	329
67	756
68	67
69	36
70	17
71	23
72	4
73	27
74	2
75	4
76	3
77	47
78	12
79	35
80	6
81	55
82	24
83	182
84	31
85	8
86	18
87	3
88	1
89	5
90	1
91	28
92	6
93	109
94	350
95	362
96	46
97	357
98	33
99	28
100	5
101	14
102	2
103	7
104	3
105	7
106	1
107	11
108	3
109	15
110	15
111	174
112	323
113	70
114	5
115	8
116	1
117	11
118	1
119	10
120	2
121	32
122	13
123	74
124	6
125	10
126	3
127	11
128	2
129	4
130	2
131	75
132	3
133	66
134	2
135	26
136	2
137	17
138	21
139	457
140	38
141	8
142	1
143	3
145	1
146	1
147	1
148	1
152	3
153	5
154	1
155	2
157	3
159	1
160	1
161	3
162	1
163	2
165	3
166	2
167	4
169	3
170	3
171	6
172	2
173	3
174	0
175	1
177	0
178	0
179	1
181	2
183	2
184	9
185	2
191	2
193	2
195	6
197	4
198	1
199	2
200	16
201	4
202	15
203	1
204	5
205	2
206	5
207	66
208	10
209	41
210	5
211	7
212	0
214	1
215	2
216	3
217	0
218	3
223	2
224	0
226	0
227	40
228	3
229	39
230	4
231	15
232	2
233	5
234	1
235	2
241	1
242	286
243	27
244	266
245	25
246	81
247	8
248	9
249	1
251	24
252	3
253	16
254	1
255	2
256	1
287	4
288	1
289	4
290	1
291	1
