Mass Spectrum: Methyl 7-hydroxy-2,4-octadienoate, (E,E)-, TBDMS derivative
Formula: C15H28O3Si
CAS: 79427-02-4
Molecular weight: 284
m/z	intensity
26	3
27	18
29	35
31	9
39	30
40	8
41	54
42	7
43	47
44	9
45	52
46	3
47	36
50	3
51	9
52	4
53	19
54	4
55	26
56	8
57	35
58	34
59	145
60	15
61	34
63	4
65	19
66	27
67	24
68	4
69	9
70	4
71	10
72	8
73	999
74	103
75	372
76	30
77	77
78	29
79	46
80	5
81	18
82	4
83	22
84	5
85	23
86	4
87	18
88	3
89	657
90	63
91	82
92	10
93	91
94	26
95	25
96	5
97	13
98	25
99	21
100	7
101	108
102	19
103	150
104	17
105	14
106	6
107	11
108	5
109	24
110	3
111	16
112	3
113	7
114	8
115	294
116	32
117	19
119	23
120	2
121	58
122	8
123	15
124	3
125	10
126	5
127	9
129	7
131	48
132	6
133	287
134	35
135	20
137	17
138	4
139	5
141	9
143	8
145	59
146	7
147	30
148	4
149	45
150	5
151	114
152	26
153	25
154	4
155	7
157	11
159	837
160	106
161	35
162	3
165	6
167	17
168	7
169	10
171	4
173	11
175	18
181	7
183	116
184	19
185	27
186	5
187	5
189	11
195	39
196	7
197	6
199	20
200	3
201	11
205	3
209	4
211	9
213	3
215	4
225	11
226	2
227	513
228	99
229	30
230	3
233	6
237	3
240	24
241	5
243	5
253	4
269	31
270	9
271	2
283	2
284	19
285	5
