Mass Spectrum: 2-Ethyl-2-formylaminosuccinic acid, di-t-butyl ester
Formula: C15H27NO5
CAS: 79435-83-9
Molecular weight: 301
m/z	intensity
26	8
27	54
28	63
29	164
30	12
31	8
37	4
38	10
39	92
40	21
41	343
42	90
43	54
44	19
45	5
46	71
50	11
51	12
52	5
53	21
54	18
55	65
56	199
57	999
58	42
59	47
64	3
65	6
68	4
69	6
70	65
71	36
72	19
73	4
76	4
77	6
81	5
82	6
83	5
84	15
86	6
88	9
91	8
93	6
97	10
98	91
99	76
100	46
101	4
102	14
104	4
105	3
112	10
114	10
115	12
116	483
117	28
126	259
127	53
128	10
129	3
130	24
132	56
133	3
141	4
142	5
143	11
144	567
145	119
146	13
160	32
161	7
162	4
172	289
173	24
174	3
181	3
186	3
188	5
189	53
190	9
200	70
201	9
228	3
245	4
