Mass Spectrum: N-Tert.-butyl-2-carbethoxyazetidine
Formula: C10H19NO2
CAS: 79432-68-1
Molecular weight: 185
m/z	intensity
27	9
28	73
29	62
30	11
39	11
41	84
42	18
55	40
56	999
57	209
58	40
70	90
71	6
84	18
96	20
112	744
113	24
142	84
143	5
170	416
171	40
185	84
186	11
187	1
