Mass Spectrum: 5,6-Dihydrosolasodine
Formula: C27H45NO2
CAS: 79464-64-5
Molecular weight: 415
m/z	intensity
41	107
42	31
43	82
44	22
45	5
49	1
51	1
53	25
54	26
55	176
56	30
57	66
58	18
59	8
65	11
66	5
67	100
68	45
69	71
70	35
71	14
72	3
73	3
74	1
77	34
78	7
79	103
80	22
81	113
82	36
83	47
84	28
85	8
86	9
87	1
89	1
91	84
92	14
93	114
94	33
95	89
96	41
97	21
98	48
99	5
100	1
101	1
103	4
104	2
105	67
106	20
107	90
108	46
109	40
110	39
111	95
112	19
113	611
114	999
115	86
116	8
117	16
118	5
119	35
120	18
121	42
122	40
123	16
124	65
125	71
126	15
127	3
128	3
129	7
130	3
131	16
132	5
133	25
134	12
135	19
136	11
137	8
138	669
139	111
140	11
141	2
142	3
143	6
144	2
145	14
146	5
147	21
148	9
149	11
150	12
151	5
152	33
153	6
154	2
155	1
157	5
158	1
159	10
160	4
161	26
162	11
163	7
164	13
165	5
166	22
167	5
168	6
169	1
171	3
173	5
174	1
175	6
176	7
177	5
178	9
179	1
180	7
181	1
183	1
185	2
187	3
188	1
189	1
190	3
191	1
192	7
193	1
194	1
199	2
201	3
202	1
204	1
213	1
215	1
216	2
217	0
229	2
232	0
234	1
255	2
269	1
273	4
274	0
287	1
316	3
358	2
372	2
386	11
387	24
388	6
396	0
398	3
400	11
401	2
414	15
415	43
416	17
417	4
418	1
