Mass Spectrum: 2-Pentene, 3-diethylboryl-2-trimethylsilyl-
Formula: C12H27BSi
CAS: 79483-02-6
Molecular weight: 210
m/z	intensity
26	12
27	41
28	42
29	8
31	10
36	1
37	6
38	3
39	17
40	84
41	126
42	4
43	35
44	14
45	101
46	7
47	3
50	5
51	16
52	4
53	15
54	7
55	23
56	3
57	10
58	12
59	170
60	12
61	5
63	2
64	3
65	10
66	8
67	17
68	12
69	40
70	2
71	7
72	6
73	999
74	79
75	35
76	1
77	2
78	6
79	20
80	11
81	11
82	2
83	19
84	2
85	12
86	5
87	374
88	36
89	14
91	2
92	4
93	16
94	10
95	8
96	4
97	47
98	7
99	30
100	6
101	66
102	7
103	2
105	1
106	3
107	22
108	53
109	12
110	3
111	53
112	9
113	11
114	4
115	1
121	4
122	7
123	8
124	2
125	25
126	19
127	13
128	3
129	3
135	9
136	32
137	11
138	2
139	6
140	10
141	1
142	2
150	1
151	4
152	11
153	41
154	12
155	2
165	1
166	1
167	2
180	11
181	54
182	42
183	7
184	1
194	2
195	10
196	2
209	11
210	49
211	8
212	2
