Mass Spectrum: Kryptofix 22dd
Formula: C32H66N2O4
CAS: 79495-97-9
Molecular weight: 542
m/z	intensity
13	1
14	3
15	20
16	2
17	5
18	21
25	2
26	18
27	68
28	81
29	138
30	80
31	26
32	2
33	3
37	1
38	4
39	34
40	9
41	232
42	172
43	506
44	240
45	119
46	4
49	1
50	3
51	5
52	5
53	15
54	29
55	180
56	306
57	303
58	233
59	30
60	4
61	1
62	2
63	2
64	2
65	7
66	4
67	29
68	32
69	81
70	228
71	129
72	119
73	21
74	28
75	3
76	1
77	7
78	3
79	14
80	15
81	26
82	48
83	43
84	140
85	50
86	83
87	30
88	29
89	9
90	2
91	8
92	5
93	10
94	44
95	17
96	38
97	25
98	116
99	25
100	299
101	199
102	34
103	4
104	3
105	4
106	9
107	16
108	29
109	11
110	29
111	13
112	67
113	18
114	999
115	78
116	31
117	4
118	16
119	4
120	8
121	7
122	9
123	6
124	19
125	11
126	47
127	9
128	49
129	12
130	32
131	28
132	55
133	6
134	6
135	5
136	8
137	6
138	16
139	6
140	35
141	7
142	24
143	6
144	215
145	21
146	20
147	4
148	4
149	4
150	5
151	4
152	11
153	5
154	23
155	6
156	15
157	14
158	36
159	6
160	5
161	2
162	4
163	11
164	68
165	4
166	13
167	3
168	119
169	17
170	94
171	69
172	18
173	7
174	52
175	6
176	7
177	5
178	5
179	4
180	11
181	7
182	112
183	29
184	116
185	20
186	9
187	19
188	8
189	2
190	10
191	4
192	9
193	4
194	50
195	10
196	653
197	98
198	181
199	32
200	11
201	9
202	4
203	2
204	6
205	3
206	5
207	13
208	27
209	37
210	50
211	31
212	58
213	12
214	41
215	8
216	3
217	1
218	4
219	3
220	6
221	3
222	14
223	6
224	28
225	21
226	252
227	87
228	73
229	12
230	4
231	2
232	5
233	3
234	19
235	5
236	6
237	26
238	16
239	11
240	66
241	33
242	32
243	8
244	35
245	9
246	9
247	2
248	1
249	2
250	3
251	3
252	10
253	6
254	21
255	7
256	240
257	47
258	305
259	50
260	9
261	2
262	1
263	2
264	2
265	2
266	3
267	4
268	9
269	112
270	92
271	51
272	102
273	19
274	10
275	15
276	4
277	1
278	1
279	1
280	2
281	2
282	8
283	4
284	61
285	13
286	20
287	5
288	3
289	2
290	2
293	1
294	1
295	3
296	6
297	6
298	17
299	10
300	7
301	5
302	3
303	1
306	1
307	1
308	3
309	2
310	4
311	5
312	4
313	25
314	11
315	4
316	28
317	7
318	2
321	1
322	1
323	2
324	2
325	4
326	2
327	16
328	6
329	5
330	9
331	13
332	13
333	5
334	2
335	1
336	3
337	1
338	2
339	4
340	2
341	22
342	7
343	4
344	2
345	2
346	1
348	1
349	1
350	1
351	2
352	1
353	5
354	2
355	4
356	2
357	5
358	4
359	3
360	3
361	1
362	1
363	1
364	1
365	1
366	1
367	1
368	1
369	3
370	1
371	9
372	3
373	1
377	1
378	1
379	1
381	2
382	1
383	5
384	2
385	12
386	4
387	2
388	1
389	1
393	1
395	1
396	1
397	3
398	1
399	5
400	3
401	23
402	8
403	3
405	1
407	1
409	1
410	1
411	3
412	1
413	10
414	5
415	312
416	80
417	13
418	2
423	2
424	1
425	2
426	1
427	7
428	2
429	9
430	4
437	3
438	1
439	17
440	7
441	17
442	5
443	5
444	1
448	2
449	1
450	1
451	5
452	3
453	21
454	8
455	8
456	1
457	3
458	1
459	4
460	1
463	1
465	7
466	3
467	140
468	47
469	16
470	3
471	6
472	2
477	1
478	2
479	8
480	9
481	325
482	104
483	23
484	4
485	7
486	3
493	1
495	3
496	1
497	5
498	2
499	9
500	4
509	2
510	3
511	7
512	3
513	9
514	2
527	3
528	1
536	1
537	2
538	4
539	8
540	31
541	72
542	85
543	33
544	6
545	1
