Mass Spectrum: Propanedioic acid, dihydrazide, N2,N2'-bis(2-furfurylideno)-
Formula: C13H12N4O4
CAS: 795-25-5
Molecular weight: 288
m/z	intensity
33	2
34	2
36	3
37	51
38	144
39	703
40	75
41	62
42	119
43	232
44	57
45	40
46	20
47	1
49	15
50	143
51	303
52	642
53	279
54	170
55	111
56	36
57	22
59	240
60	8
61	5
62	11
63	37
64	60
65	53
66	197
67	46
68	95
69	182
70	14
71	8
73	4
74	9
75	5
76	8
77	38
78	70
79	164
80	403
81	912
82	116
83	78
84	80
85	37
86	40
87	3
88	3
89	4
90	5
91	12
92	27
93	155
94	999
95	117
96	25
97	5
98	2
99	1
100	19
101	5
102	38
103	40
104	32
105	15
106	9
107	8
108	42
109	172
110	663
111	187
112	11
113	1
114	1
115	1
116	1
117	3
118	5
119	6
120	33
121	61
122	9
123	29
124	5
125	1
126	0
127	0
128	0
129	1
131	39
132	9
133	4
134	7
135	4
136	21
137	220
138	17
139	1
143	0
144	1
145	1
146	3
147	2
148	0
149	2
150	1
151	17
152	8
153	1
155	0
158	0
159	3
160	10
161	6
162	0
163	0
166	0
167	0
170	0
171	2
172	0
174	2
175	3
176	3
179	648
180	56
181	7
182	0
184	0
185	0
188	61
189	20
190	2
193	0
195	1
204	0
210	2
217	0
258	0
272	0
286	0
287	0
288	15
289	2
