Mass Spectrum: Ethanol, 2-[(2-chloroethyl)dithio]-
Formula: C4H9ClOS2
CAS: 79503-74-5
Molecular weight: 172
m/z	intensity
27	300
31	130
45	999
46	120
47	130
59	110
60	840
63	350
64	220
65	120
66	60
76	190
77	100
79	360
92	350
128	430
130	190
137	30
141	30
172	580
173	35
174	240
175	10
