Mass Spectrum: 2-Acetylpyridine 4,4-dimethylselenosemicarbazone
Formula: C10H14N4Se
CAS: 79514-49-1
Molecular weight: 270
m/z	intensity
42	492
43	90
44	292
45	25
46	6
47	8
48	0
49	30
50	72
51	461
52	252
53	61
54	19
55	44
56	65
57	26
58	18
59	5
60	1
61	3
62	5
63	21
64	16
65	26
66	10
67	9
69	163
70	78
71	441
72	17
74	12
75	12
76	37
77	75
78	999
79	580
80	64
81	4
82	12
83	1
87	0
88	4
89	3
90	7
91	15
92	77
93	42
94	15
95	19
96	3
97	3
98	2
100	0
102	3
103	3
104	147
105	208
106	317
107	45
108	13
109	1
110	3
111	0
112	1
114	0
115	2
116	1
117	33
118	50
119	233
120	106
121	500
122	46
123	22
124	21
125	1
126	5
127	1
129	2
130	5
131	14
132	39
133	103
134	96
136	140
138	30
139	3
140	0
141	1
144	2
145	8
146	19
147	20
148	18
149	1
150	36
151	10
152	6
153	2
155	4
156	4
157	8
158	1
159	20
160	3
161	72
162	19
163	2
168	1
170	2
171	0
172	2
173	3
174	2
175	1
177	0
179	2
180	2
181	5
182	5
183	11
184	11
185	5
186	15
187	2
188	13
189	25
190	24
192	46
194	17
195	8
196	31
197	28
198	59
199	27
200	90
201	10
202	15
203	0
208	0
221	0
222	2
223	3
224	6
225	0
226	13
227	1
228	2
234	0
236	1
237	0
239	1
241	2
243	0
249	1
251	9
252	9
253	24
255	50
256	4
257	10
258	0
264	6
266	58
267	51
268	142
270	299
271	36
272	50
273	12
274	0
275	1
