Mass Spectrum: Hydrazinecarboxamide, 2-(2-thienylmethylene)-
Formula: C6H7N3OS
CAS: 79531-82-1
Molecular weight: 169
m/z	intensity
33	6
34	4
36	3
37	48
38	98
39	360
40	61
41	19
42	48
43	157
44	664
45	438
46	29
47	37
48	7
49	24
50	87
51	88
52	99
53	109
54	86
55	12
57	117
58	101
59	21
60	196
61	42
62	43
63	102
64	23
65	83
66	22
67	16
68	22
69	212
70	280
71	91
72	83
73	45
74	7
75	11
76	8
77	1
78	0
79	2
81	221
82	76
83	76
84	246
85	41
86	18
87	4
88	0
91	3
92	35
93	46
95	189
96	253
97	338
98	227
99	289
100	76
101	15
102	3
103	0
104	0
106	1
109	999
110	224
111	58
112	12
114	1
123	0
125	540
126	328
127	41
128	15
129	0
131	0
136	0
149	0
151	0
152	16
153	1
160	0
168	4
169	276
170	22
171	11
174	0
