Mass Spectrum: N-(Morpholin-4-carbothioyl)acetamide
Formula: C7H12N2O2S
CAS: 79556-47-1
Molecular weight: 188
m/z	intensity
12	3
13	7
14	60
15	426
16	8
17	2
18	25
19	5
25	2
26	49
27	195
28	501
29	243
30	354
31	39
32	24
33	7
34	4
35	2
37	0
38	3
39	9
40	21
41	86
42	267
43	993
44	154
45	72
46	18
47	11
48	2
49	1
50	0
51	2
52	6
53	10
54	62
55	111
56	248
57	174
58	215
59	80
60	241
61	88
62	20
63	4
64	1
66	1
67	6
68	19
69	161
70	36
71	24
72	72
73	13
74	10
75	12
76	31
77	5
78	2
81	1
82	2
83	10
84	14
85	96
86	999
87	64
88	43
89	42
90	14
91	3
92	0
95	1
96	2
97	1
98	3
99	4
100	6
101	41
102	37
103	104
104	9
105	5
108	1
111	5
113	76
114	9
115	46
116	6
117	18
118	101
119	8
120	4
125	1
126	3
127	4
128	31
129	19
130	27
131	6
132	6
141	4
142	4
143	23
144	14
145	52
146	7
147	3
155	8
156	1
157	2
158	2
159	5
160	3
171	1
173	2
188	326
189	36
190	18
191	2
