Mass Spectrum: 1'-Acetyl-1-butyryl-1,1',2,2',3,4-hexahydro-2,2,2',2',4,4'-hexamethyl-4,6'-biquinolyl
Formula: C30H38N2O2
CAS: 79552-07-1
Molecular weight: 458
m/z	intensity
39	35
41	216
43	999
45	1
51	4
53	7
55	16
56	3
57	3
63	2
65	5
69	9
71	258
77	16
78	3
79	2
81	2
89	5
91	14
92	1
101	2
102	3
103	3
105	2
106	2
115	19
116	11
117	10
118	12
119	2
120	2
128	13
129	5
130	9
131	5
132	4
134	2
140	4
141	3
142	6
143	12
144	10
145	3
146	2
150	4
151	2
152	2
153	2
154	4
158	88
159	7
160	2
165	5
166	4
167	3
168	3
170	9
171	10
172	8
174	10
175	1
178	1
180	3
181	3
182	6
183	2
184	6
185	2
189	1
196	2
198	6
202	3
204	1
208	2
215	2
217	1
222	2
230	1
240	1
241	1
242	2
243	1
256	2
257	2
258	2
259	2
271	2
272	3
273	4
274	2
275	4
283	1
285	2
287	1
297	2
299	9
300	2
301	2
303	2
313	4
315	22
316	5
329	3
330	1
331	3
373	5
401	25
402	7
443	3
