Mass Spectrum: 3-Butyne(dithioic) acid, 2,2-dimethyl-, methyl ester
Formula: C7H10S2
CAS: 79566-76-0
Molecular weight: 158
m/z	intensity
27	18
29	14
38	2
39	135
40	10
41	238
42	1
44	4
45	116
46	8
47	26
50	22
51	74
52	13
53	19
58	7
59	79
61	19
63	12
65	75
66	12
67	183
68	1
69	46
70	16
71	28
76	27
77	35
78	1
81	2
83	1
85	11
86	11
91	999
92	37
93	90
95	35
96	8
97	6
99	13
101	9
109	1
110	16
111	128
112	3
125	2
143	242
144	8
145	10
157	8
158	250
159	11
160	11
