Mass Spectrum: (1R,4aR,8aR)-2,5,5,8a-Tetramethyl-4,5,6,7,8,8a-hexahydro-1H-1,4a-methanonaphthalene, rel-
Formula: C15H24
CAS: 79562-96-2
Molecular weight: 204
m/z	intensity
27	51
29	63
39	122
40	19
41	322
42	32
43	85
46	1
50	7
51	41
52	18
53	100
54	11
55	303
56	78
57	55
63	21
64	12
65	76
66	17
67	52
69	476
70	60
71	21
72	5
76	5
77	200
78	53
79	170
80	65
81	122
82	17
83	28
84	14
91	267
92	271
93	334
94	220
95	94
96	14
97	19
103	32
104	18
105	351
106	86
107	205
108	68
109	72
111	385
112	32
115	60
116	22
117	80
118	28
119	999
120	146
121	181
122	47
123	214
124	23
127	6
128	22
129	18
130	11
131	36
133	251
134	72
135	24
136	18
142	6
145	17
147	46
148	13
149	7
161	33
175	9
176	4
189	40
190	9
204	122
205	19
206	3
