Mass Spectrum: 2-Azido-4-iodo-butanoic acid, methyl ester
Formula: C5H8IN3O2
CAS: 79584-53-5
Molecular weight: 269
m/z	intensity
26	154
27	999
28	625
29	194
30	43
31	85
33	15
36	4
37	24
38	57
39	285
40	73
41	371
42	401
43	229
44	68
45	81
46	7
49	11
50	19
51	40
52	53
53	50
54	597
55	292
56	46
57	22
58	17
59	876
60	42
61	18
62	7
63	77
64	5
65	28
66	6
67	12
68	29
69	72
70	58
71	22
72	8
73	10
74	61
75	8
76	4
77	10
78	5
79	12
80	5
81	8
82	31
83	208
84	14
85	8
86	12
87	20
88	16
89	3
90	33
91	51
92	33
93	6
95	10
96	3
97	8
98	95
99	16
100	12
101	335
102	21
103	4
105	9
106	3
107	24
108	7
109	26
110	3
113	11
114	58
116	10
123	37
124	4
127	188
128	81
129	9
134	8
135	4
136	9
137	3
138	5
139	6
140	7
141	47
142	459
143	32
144	5
149	7
152	4
153	6
154	185
155	696
156	18
158	7
166	4
167	4
168	5
169	28
172	5
181	7
182	530
183	22
184	12
185	8
191	3
195	4
197	59
198	3
210	3
213	10
214	3
227	4
241	8
269	6
