Mass Spectrum: 1,3-Dioxolane-2-ethanethioic acid, 2-methyl-
Formula: C6H10O3S
CAS: 79590-77-5
Molecular weight: 162
m/z	intensity
26	9
27	33
29	50
30	4
31	14
33	10
34	8
35	5
36	2
37	5
38	9
39	67
40	23
41	96
42	99
43	675
44	34
45	62
46	3
47	18
55	5
56	2
57	15
58	38
59	40
60	41
61	35
62	6
63	8
64	3
65	0
66	0
67	1
68	4
69	26
70	1
71	9
72	11
73	3
74	6
75	4
76	1
77	1
78	6
79	9
80	1
81	0
82	0
83	1
85	19
86	25
87	999
88	65
89	12
90	14
91	2
92	1
93	0
97	0
98	1
99	13
100	2
101	4
102	6
103	3
104	3
105	117
106	6
107	7
108	0
109	4
110	0
113	8
114	0
115	0
116	0
117	0
119	8
120	0
121	0
126	0
127	0
128	2
129	3
130	0
131	9
132	2
133	0
142	0
147	130
148	10
149	7
150	0
