Mass Spectrum: 10H-Dibenz[b,f]azepin-10-one, 5-[3-(dimethylamino)propyl]-5,11-dihydro-
Formula: C19H22N2O
CAS: 796-29-2
Molecular weight: 294
m/z	intensity
58	999
59	59
72	69
84	67
85	163
209	55
220	101
221	110
222	68
223	87
248	45
249	86
294	192
295	45
