Mass Spectrum: 4-Methyl-8-nitrooctane-3,5-dione
Formula: C9H15NO4
CAS: 79630-95-8
Molecular weight: 201
m/z	intensity
25	6
27	50
28	39
29	156
30	16
31	4
38	2
39	30
40	6
41	89
42	61
43	44
44	7
45	9
46	3
50	2
51	5
52	3
53	14
54	8
55	72
56	43
57	999
58	32
59	5
60	25
61	2
63	2
65	6
66	2
67	15
68	6
69	63
70	12
71	9
72	4
73	18
74	3
75	2
76	2
77	5
79	6
80	3
81	7
82	9
83	45
84	13
85	11
86	72
87	8
88	50
89	2
91	4
92	2
93	3
94	4
95	7
96	8
97	45
98	15
99	10
100	6
101	4
102	3
104	2
105	3
107	3
108	2
109	4
110	6
111	11
112	6
113	95
114	9
115	6
116	125
117	13
118	2
119	1
121	2
122	3
123	2
124	12
125	24
126	18
127	9
128	4
129	3
130	4
131	2
137	2
138	3
139	5
141	4
142	2
143	2
144	5
145	49
146	4
147	2
152	2
153	7
154	4
155	3
172	5
185	1
201	10
202	2
