Mass Spectrum: L-5-Propylthiomethylhydantoin (+)-S-oxide
Formula: C7H12N2O3S
CAS: 79646-36-9
Molecular weight: 204
m/z	intensity
36	2
38	2
39	40
40	30
41	880
42	49
43	999
44	24
45	26
46	13
47	22
48	4
49	5
50	11
51	2
52	2
53	3
54	2
55	6
56	4
57	5
58	5
59	8
60	3
61	5
62	1
63	418
64	9
65	8
66	2
67	2
68	5
69	22
70	27
71	4
72	4
73	10
74	5
75	11
76	6
77	7
81	2
82	2
83	3
84	2
85	8
86	7
87	2
88	2
89	14
90	2
91	26
92	335
93	9
94	8
95	2
96	3
97	2
98	2
99	14
100	697
101	18
102	4
105	2
106	2
108	4
111	1
112	641
113	890
114	24
115	4
117	3
124	4
134	2
144	3
145	2
150	4
153	2
161	7
162	214
163	7
164	5
166	2
169	5
186	1
187	1
188	1
204	1
205	3
