Mass Spectrum: 1,5-Dioxa-10,17-diazacycloheneicosane-6,9,18,21-tetrone
Formula: C17H28N2O6
CAS: 79688-13-4
Molecular weight: 356
m/z	intensity
53	40
54	83
55	999
56	949
57	474
58	208
59	199
60	141
67	141
68	71
69	383
70	291
71	96
72	241
73	149
74	58
79	37
81	183
82	224
83	224
84	658
85	216
86	483
87	84
96	105
97	933
98	499
99	141
100	858
101	508
111	45
112	99
113	783
114	466
115	141
126	216
127	149
128	74
140	224
141	174
142	56
153	34
154	166
155	54
156	35
157	34
158	166
159	100
167	64
168	691
169	96
170	74
171	114
172	115
173	30
181	119
182	103
184	158
185	41
186	49
196	9
197	72
198	109
199	35
200	33
201	12
202	9
203	4
204	5
207	4
208	3
209	4
210	4
211	11
212	54
213	28
214	51
215	19
216	18
217	9
218	5
223	4
224	15
225	91
226	158
227	44
228	36
229	29
230	24
231	12
232	9
236	4
237	6
238	10
239	39
240	18
241	9
242	29
243	26
244	62
245	18
246	37
247	6
251	9
252	19
253	54
254	183
255	53
256	20
257	35
258	36
259	14
260	4
262	6
266	7
267	4
268	4
269	11
270	19
271	57
272	19
273	9
279	11
280	191
281	95
282	18
283	28
284	18
285	53
286	20
287	11
293	6
294	5
297	6
298	14
299	56
300	18
301	6
302	4
310	5
311	55
312	22
313	10
314	4
315	6
328	4
338	4
339	3
356	10
357	4
