Mass Spectrum: 3,3-Dimethyl-1,5-dioxa-10,17-diazacycloheneicosane-6,9,18,21-tetrone
Formula: C19H32N2O6
CAS: 79688-14-5
Molecular weight: 384
m/z	intensity
53	36
54	44
55	523
56	364
57	158
58	185
59	30
60	7
67	79
68	61
69	603
70	184
71	84
72	166
73	80
74	57
79	39
80	26
81	155
82	301
83	215
84	761
85	215
86	507
87	139
88	12
94	11
95	34
96	107
97	999
98	587
99	103
100	968
101	285
102	22
109	7
110	25
111	41
112	114
113	349
114	171
115	22
116	9
118	34
122	9
123	6
124	18
125	20
126	182
127	111
128	63
129	9
130	15
131	36
132	20
136	12
137	9
138	18
139	15
140	190
141	209
142	139
143	84
144	49
145	18
146	14
150	7
151	7
152	26
153	30
154	153
155	66
156	49
157	7
158	41
159	7
160	12
166	11
167	42
168	555
169	111
170	53
171	15
172	41
173	9
174	12
179	9
180	23
181	88
182	91
183	20
184	11
185	14
186	93
187	28
188	12
195	11
196	14
197	74
198	61
199	60
200	68
201	11
212	36
213	14
214	17
215	7
216	7
225	60
226	44
227	14
228	11
229	9
240	18
241	14
242	18
243	14
244	9
252	12
253	30
254	134
255	26
256	17
257	17
258	9
267	17
268	7
270	7
271	14
272	22
273	12
280	50
281	30
282	22
283	6
284	6
285	11
286	11
297	7
298	9
299	55
300	11
356	11
366	6
384	53
385	17
386	7
