Mass Spectrum: 1,4,7,10-Tetraoxa-13-thiacyclopentadeca-3,11,14-trione
Formula: C10H14O7S
CAS: 79687-35-7
Molecular weight: 278
m/z	intensity
57	37
58	37
59	31
60	83
61	74
70	28
71	24
72	18
73	84
74	258
75	47
76	19
86	999
87	788
88	63
89	93
90	396
99	20
101	33
102	28
103	303
104	30
105	18
115	19
116	66
117	22
118	753
119	258
120	48
121	18
130	17
131	34
132	18
144	18
147	360
148	33
149	202
163	15
174	16
175	19
177	25
205	26
235	30
236	15
250	106
251	19
278	80
