Mass Spectrum: 3,3-Dimethyl-1,5-dioxa-10,15-diazacyclononadecane-6,9,16,19-tetrone
Formula: C17H28N2O6
CAS: 79688-12-3
Molecular weight: 356
m/z	intensity
50	3
51	3
52	5
53	26
54	60
55	443
56	330
57	145
58	84
59	10
70	999
71	145
72	161
73	88
75	4
77	8
78	4
79	8
80	28
81	34
82	64
83	100
84	475
85	250
86	106
87	93
88	10
91	5
92	3
93	6
94	31
95	24
96	75
97	136
98	177
99	153
100	596
101	265
102	21
103	8
106	5
107	10
108	22
109	26
110	51
111	35
112	250
113	419
114	145
115	47
116	10
117	6
118	53
119	10
120	4
121	4
122	8
123	45
124	101
125	136
126	290
127	346
128	185
129	31
130	25
131	41
132	20
133	8
134	7
135	16
136	8
137	28
138	28
139	33
140	580
141	250
142	193
143	250
144	68
145	20
146	43
147	4
149	3
150	8
151	115
152	78
153	331
154	257
155	49
156	11
157	11
158	51
159	20
160	16
161	7
165	7
166	6
167	14
168	33
169	282
170	170
171	87
172	153
173	17
174	5
175	3
179	12
180	3
181	8
182	6
183	7
184	8
185	55
186	112
187	57
188	8
189	6
194	10
195	3
196	9
197	70
198	32
199	28
200	45
201	9
202	4
203	3
204	3
207	7
208	7
209	3
210	4
211	5
212	33
213	21
214	39
215	20
216	6
217	3
218	8
224	14
225	49
226	177
227	34
228	47
229	19
230	8
231	3
232	4
235	8
236	24
237	19
238	9
239	16
240	8
241	5
242	28
243	25
244	9
245	8
246	13
251	7
252	91
253	66
254	92
255	37
256	15
257	16
258	19
259	3
260	61
261	2
262	4
265	5
268	4
269	11
270	9
271	70
272	17
273	5
283	45
284	12
285	8
286	12
287	3
297	7
298	5
299	9
300	7
301	4
310	7
311	78
312	24
313	11
314	3
315	8
326	5
327	3
328	100
329	20
330	5
338	33
339	10
341	4
356	86
357	29
358	7
