Mass Spectrum: 1-Benzyl-1,6-diazaphenalene
Formula: C18H14N2
CAS: 79691-98-8
Molecular weight: 258
m/z	intensity
41	20
42	3
43	5
44	4
45	2
48	1
49	2
50	15
51	32
52	8
53	2
55	4
56	2
57	3
59	0
61	3
62	17
63	52
64	19
65	148
66	8
67	0
69	3
70	2
71	2
73	1
74	11
75	14
76	10
77	12
78	4
79	1
81	0
82	1
83	3
84	2
85	1
86	10
87	16
88	13
89	31
90	32
91	999
92	80
93	3
95	0
97	1
98	3
99	5
100	8
101	6
102	4
103	5
104	2
105	2
106	1
107	0
108	0
110	2
111	3
112	7
113	45
114	25
115	7
116	3
117	0
121	2
122	1
124	1
125	4
126	10
127	11
128	9
129	4
131	1
137	0
138	8
139	18
140	103
141	26
142	3
144	0
149	1
150	1
151	2
152	4
153	4
154	2
155	1
163	0
164	1
165	9
166	15
167	207
168	41
169	5
170	3
171	0
174	0
175	1
176	1
177	0
178	1
179	4
180	5
181	18
182	8
183	3
192	0
197	0
199	1
200	3
201	3
202	4
203	2
205	1
214	0
216	0
217	0
226	1
229	3
230	1
241	1
242	4
243	1
256	9
257	35
258	456
259	89
260	10
261	0
