Mass Spectrum: Morphinan-6-one, 2,4-diacetoxy-1-bromo-N-formyl-
Formula: C21H22BrNO6
CAS: 79700-32-6
Molecular weight: 463
m/z	intensity
41	27
42	51
43	999
44	55
45	21
46	11
49	9
51	18
52	8
53	20
54	14
55	101
56	25
57	16
58	70
59	6
60	11
63	12
65	19
66	6
67	23
68	18
69	35
70	7
71	11
72	68
73	725
74	40
75	7
76	6
77	36
78	33
79	17
80	13
81	10
82	13
83	9
84	15
85	6
86	6
87	6
89	11
90	6
91	24
92	6
93	10
94	9
95	9
97	7
101	7
102	12
103	13
104	6
105	11
106	20
107	12
108	6
113	6
114	9
115	68
116	15
117	11
118	7
119	6
120	7
121	10
122	5
123	9
124	14
126	8
127	19
128	33
129	22
130	11
131	17
132	8
133	8
139	10
140	6
141	20
142	11
143	23
144	16
145	12
147	10
148	15
149	15
150	8
152	13
153	14
154	8
155	12
156	8
157	17
158	10
159	6
160	19
161	9
162	11
165	7
168	11
169	16
170	11
171	26
172	18
173	17
174	11
176	5
178	6
181	18
182	9
183	10
184	14
185	22
186	28
187	11
197	19
198	29
199	42
200	32
201	12
209	6
210	24
211	14
212	12
213	14
214	15
215	7
223	6
224	6
225	16
226	23
227	34
228	122
229	37
230	8
237	6
238	7
239	9
240	19
241	14
242	25
243	7
249	12
250	7
251	51
252	16
253	48
254	20
255	14
256	8
262	6
263	11
264	17
265	18
266	17
267	10
268	7
269	6
270	24
271	15
272	6
276	20
277	20
278	28
279	25
280	13
281	9
282	13
284	6
288	9
289	12
290	11
291	17
292	6
293	9
295	6
300	33
301	10
303	7
304	9
305	14
306	94
307	149
308	106
309	129
310	24
312	5
318	6
320	13
321	14
322	19
323	13
324	9
331	10
333	16
334	118
335	27
336	113
337	20
342	19
343	7
348	34
349	42
350	46
351	39
352	14
361	49
362	15
363	57
364	15
365	8
373	6
375	7
378	7
379	119
380	27
381	115
382	21
385	5
390	9
391	7
392	12
393	7
421	118
422	26
423	117
424	23
463	63
464	16
465	63
466	15
