Mass Spectrum: Morphinan-6-one, 4,5-epoxy-2-hydroxy-, (5.alpha.)-
Formula: C16H17NO3
CAS: 79700-24-6
Molecular weight: 271
m/z	intensity
41	145
43	155
44	999
45	207
46	114
50	3
51	45
52	6
53	35
54	31
55	123
56	93
57	53
58	22
60	71
62	3
63	34
64	6
65	39
67	36
68	105
69	124
70	27
71	33
73	37
75	14
76	6
77	62
78	30
79	24
80	26
81	25
82	92
83	33
84	19
85	23
87	8
89	28
91	49
92	12
93	14
94	6
95	25
96	13
97	24
99	16
100	17
101	16
102	19
103	28
104	3
105	18
106	15
107	54
108	4
109	3
110	32
111	10
113	7
114	30
115	129
116	19
117	22
119	17
120	18
121	6
122	5
123	12
124	5
127	51
128	53
129	35
130	3
131	73
132	6
133	7
134	3
135	26
136	3
139	22
141	28
142	3
143	27
144	27
145	26
147	27
148	55
149	25
150	14
152	13
155	25
157	35
160	24
161	65
162	34
163	6
167	3
168	3
169	6
170	6
171	87
172	48
173	51
174	102
175	29
177	3
181	21
184	53
185	75
186	90
187	73
188	39
189	14
197	12
198	50
199	56
200	126
201	86
202	39
211	3
212	9
213	27
214	109
215	183
216	59
219	51
226	47
227	48
228	154
229	71
230	3
231	3
240	3
242	170
243	74
244	17
246	3
254	25
256	42
257	3
262	3
264	3
270	89
271	843
272	153
273	46
