Mass Spectrum: Morphinan-6-one, 1-bromo-N-formyl-2,4-dihydroxy-
Formula: C17H18BrNO4
CAS: 79700-31-5
Molecular weight: 379
m/z	intensity
41	317
43	272
44	121
45	101
46	51
49	20
50	37
51	115
52	50
53	97
54	56
55	373
56	98
57	118
58	240
59	32
60	63
61	4
62	6
63	71
64	32
65	105
66	35
67	94
68	56
69	197
70	48
71	72
72	139
73	999
74	77
75	43
76	34
77	205
78	206
79	83
80	60
81	66
82	66
83	74
84	57
85	50
86	28
87	38
89	64
90	26
91	119
92	39
93	54
94	57
95	49
96	49
97	48
98	32
99	31
100	15
101	53
102	57
103	61
104	24
105	65
106	111
107	65
108	23
109	24
110	8
111	25
113	45
114	31
115	223
116	58
117	48
118	39
119	31
120	15
121	53
122	40
123	34
124	99
125	9
126	24
127	78
128	102
129	79
130	39
131	82
132	40
133	43
135	26
136	47
139	50
140	9
141	65
142	10
143	98
144	57
145	55
146	18
147	57
148	48
149	61
150	49
151	4
152	49
153	43
154	11
155	34
156	5
157	56
158	9
159	9
160	70
161	44
162	52
164	5
165	8
168	36
169	49
170	30
171	85
172	52
173	98
174	58
175	9
176	17
178	11
181	56
182	18
183	13
184	53
185	79
186	96
187	45
195	14
197	61
198	112
199	147
200	89
201	41
203	5
210	97
211	53
212	36
213	53
214	43
215	9
217	5
224	36
225	39
226	81
227	136
228	552
229	177
230	39
236	4
237	12
238	14
239	14
240	55
241	25
242	71
244	5
249	47
251	247
252	33
253	236
254	58
255	49
256	38
257	4
262	28
263	59
264	68
265	81
266	63
267	42
270	16
272	5
273	4
276	100
277	92
278	125
279	101
280	44
281	5
282	31
283	4
288	18
289	23
290	25
291	48
293	42
298	4
299	8
300	82
301	90
302	18
304	37
305	100
306	250
307	447
308	272
309	363
310	70
318	4
320	5
322	32
323	7
324	4
333	9
334	317
335	71
336	308
337	57
353	5
361	98
363	95
364	14
377	5
379	543
380	109
381	504
382	102
383	4
