Mass Spectrum: Mophinan-4-ol-6-one, 7-bromo-N-formyl-, acetate(ester)
Formula: C19H20BrNO4
CAS: 79700-28-0
Molecular weight: 405
m/z	intensity
41	131
42	146
43	746
44	90
45	73
46	23
49	11
50	29
51	97
52	35
53	65
54	54
55	257
56	122
57	24
58	161
59	11
60	10
62	19
63	77
64	28
65	69
66	16
67	34
68	116
69	42
70	32
71	15
72	64
73	999
74	51
75	35
76	38
77	135
78	43
79	157
80	351
81	125
82	398
83	21
84	36
85	10
86	16
87	29
88	14
89	54
90	20
91	86
92	19
93	23
94	36
95	16
96	27
97	8
98	24
99	37
101	22
102	48
103	42
104	18
105	23
107	64
108	13
110	27
111	5
113	34
114	24
115	299
116	56
117	30
118	18
119	11
120	23
121	18
122	9
123	8
124	4
125	4
126	38
127	197
128	199
129	108
130	29
131	64
132	23
133	21
134	19
135	8
136	6
138	5
139	66
140	34
141	114
142	33
143	25
144	50
145	83
146	56
147	14
148	23
149	6
150	16
151	26
152	86
153	90
154	50
155	253
156	75
157	131
158	87
159	30
160	14
161	4
162	4
163	8
164	14
165	110
166	35
167	41
168	122
169	179
170	152
171	91
172	43
173	18
174	6
176	12
177	11
178	16
179	15
180	12
181	91
182	113
183	218
184	142
185	70
186	38
187	8
188	4
191	7
192	5
193	34
194	31
195	53
196	39
197	54
198	105
199	145
200	39
201	10
207	9
208	13
209	53
210	130
211	942
212	275
213	87
214	21
215	5
219	4
220	5
221	18
222	9
223	11
224	16
225	24
226	171
227	70
228	22
229	7
235	18
236	43
237	32
238	29
239	40
240	35
241	9
242	4
252	13
253	53
254	135
255	481
256	136
257	23
258	5
264	7
265	4
266	15
267	10
268	9
269	24
270	9
271	18
272	4
273	7
281	6
282	32
283	398
284	139
285	42
286	7
289	27
290	11
291	37
292	9
293	11
297	8
298	9
299	9
301	10
318	9
320	8
325	19
326	107
327	40
328	8
333	45
334	12
335	44
336	10
345	4
347	5
361	26
362	6
363	51
364	11
365	26
366	5
405	37
406	9
407	33
408	9
