Mass Spectrum: Nickel, (.eta.5-2,4-cyclopentadien-1-yl)[.eta.3-2,2-dimethyl-3-(2-propenyl)cyclopropyl]-
Formula: C13H18Ni
CAS: 79725-86-3
Molecular weight: 232
m/z	intensity
25	4
26	18
27	129
28	2
29	86
37	5
38	16
39	236
40	43
41	251
42	14
43	51
50	11
51	39
52	13
53	66
54	11
55	59
58	999
59	9
60	377
61	18
62	53
63	25
64	13
65	82
66	59
67	65
68	6
69	8
72	5
73	7
75	4
77	79
78	22
79	58
80	8
81	15
83	17
84	187
85	44
86	72
87	19
88	13
89	8
90	4
91	123
92	13
93	48
94	10
95	11
96	53
97	238
98	379
99	188
100	243
101	59
102	63
103	15
104	15
105	38
106	5
107	15
108	17
109	18
110	70
111	34
112	63
113	24
114	55
115	19
116	17
117	6
118	6
119	8
120	5
121	7
122	18
123	462
124	770
125	231
126	642
127	75
128	173
129	23
130	32
131	6
132	4
133	3
134	12
135	23
136	149
137	58
138	229
139	48
140	176
141	21
142	56
143	7
144	8
145	6
146	4
147	8
148	7
149	41
150	790
151	103
152	330
153	52
154	54
155	5
156	16
160	4
161	7
162	24
163	28
164	276
165	44
166	851
167	87
168	291
169	46
170	45
171	4
172	11
173	5
174	11
175	7
176	17
177	8
178	16
179	4
180	7
186	7
187	5
188	22
189	10
190	22
191	24
192	9
193	7
194	6
203	5
204	8
206	10
214	5
217	8
219	4
229	4
230	9
232	601
233	91
234	231
235	45
236	42
237	5
238	8
