Mass Spectrum: Glycyl-dl-aspartic acid
Formula: C6H10N2O5
CAS: 79731-35-4
Molecular weight: 190
m/z	intensity
12	2
13	3
14	11
15	67
16	19
17	254
18	999
19	5
20	3
25	2
26	19
27	80
28	377
29	126
30	643
31	44
32	13
36	3
37	2
38	6
39	12
40	35
41	80
42	227
43	380
44	176
45	115
46	45
47	2
50	2
51	6
52	4
53	12
54	21
55	246
56	179
57	53
58	31
59	9
60	178
61	57
62	4
63	2
65	5
66	3
67	8
68	19
69	44
70	261
71	25
72	36
73	12
74	10
75	9
76	2
77	7
78	2
79	2
80	3
81	7
82	21
83	60
84	36
85	184
86	19
87	28
88	202
89	20
90	2
91	6
92	3
93	2
94	2
95	4
96	17
97	28
98	53
99	62
100	42
101	137
102	9
103	3
105	5
106	2
107	4
108	3
109	4
110	8
111	17
112	196
113	118
114	21
115	9
116	5
117	2
120	2
121	2
123	2
124	3
125	6
126	523
127	93
128	15
129	39
130	8
135	3
136	2
137	2
138	6
139	3
140	6
141	8
142	2
143	2
144	6
147	2
149	3
151	1
152	2
153	2
154	245
155	42
156	5
157	4
158	2
167	2
168	5
169	3
170	3
172	547
173	40
174	6
