Mass Spectrum: 2-Propanone, 1-[3,5-bis(benzyloxy)phenyl]-
Formula: C23H22O3
CAS: 79755-46-7
Molecular weight: 346
m/z	intensity
39	13
41	7
43	42
51	7
63	6
65	71
77	6
89	13
91	999
92	75
105	6
165	6
166	11
167	8
178	7
179	12
180	66
181	138
182	19
213	8
255	25
256	5
303	8
346	93
347	23
