Mass Spectrum: 3-Cyclohexene-1-acetaldehyde, 4-methyl-.alpha.-methylene-5-oxo-
Formula: C10H12O2
CAS: 79763-05-6
Molecular weight: 164
m/z	intensity
25	1
26	31
27	355
28	104
29	136
30	5
31	13
37	7
38	29
39	503
40	61
41	313
42	39
43	92
44	13
45	11
46	2
47	2
49	4
50	52
51	130
52	68
53	295
54	700
55	126
56	20
57	17
58	6
59	4
60	13
61	6
62	13
63	37
64	10
65	97
66	42
67	96
68	27
69	92
70	10
71	8
72	2
73	5
74	9
75	7
76	5
77	171
78	44
79	255
80	93
81	76
82	631
83	50
84	8
85	5
86	3
87	3
89	8
90	22
91	211
92	36
93	119
94	48
95	53
96	32
97	9
98	4
99	2
101	2
102	6
103	33
104	13
105	47
106	13
107	214
108	999
109	213
110	23
111	8
112	3
113	4
115	21
116	7
117	58
118	28
119	49
120	14
121	180
122	90
123	13
124	5
125	3
126	2
127	3
128	2
129	5
131	23
132	5
133	36
134	8
135	465
136	111
137	15
138	2
141	2
142	2
145	18
146	19
147	21
148	20
149	46
150	6
151	1
160	2
161	1
162	1
163	14
164	572
165	76
166	10
