Mass Spectrum: d-Valine, N-[N-[(phenylmethoxy)carbonyl]-S-(phenylmethyl)-l-cysteinyl]-, phenylmethyl ester
Formula: C30H34N2O5S
CAS: 79761-03-8
Molecular weight: 534
m/z	intensity
27	25
28	22
29	24
30	21
31	2
37	1
38	4
39	39
40	6
41	74
42	21
43	77
44	12
45	14
46	2
50	9
51	24
52	7
53	14
54	22
55	82
56	260
57	35
58	2
59	3
60	12
61	62
62	4
63	11
64	3
65	44
66	4
67	29
68	9
69	23
70	35
71	13
72	40
73	3
74	7
75	3
76	3
77	39
78	10
79	64
80	8
81	19
82	26
83	35
84	6
85	7
86	3
87	1
88	2
89	12
90	13
91	999
92	81
93	5
95	4
96	6
97	18
98	58
99	88
100	18
101	2
102	10
105	5
106	2
107	44
108	55
109	6
110	3
111	4
113	10
116	6
117	2
118	1
121	5
122	4
123	16
124	9
125	6
126	5
127	2
132	3
133	1
135	2
137	33
138	4
139	2
140	2
141	6
142	9
143	48
144	5
145	3
147	3
148	1
149	15
150	2
153	2
154	6
155	2
157	2
158	2
160	3
162	4
163	2
164	15
165	3
166	9
167	15
168	7
169	1
175	1
176	5
177	28
178	4
179	2
180	2
181	9
182	2
185	2
192	4
193	10
194	1
195	2
196	2
200	2
201	3
206	8
207	2
208	7
209	1
210	2
213	4
214	1
215	4
224	49
225	8
229	2
235	1
236	1
239	1
248	13
249	3
250	2
254	2
256	13
257	3
258	1
260	5
261	2
262	2
263	2
277	3
282	0
289	16
290	3
291	5
292	68
293	13
294	5
300	2
303	7
304	4
307	0
319	1
328	1
335	252
336	52
337	20
338	3
341	0
353	0
357	1
367	0
383	12
384	5
385	1
399	33
400	9
401	2
411	2
412	3
413	0
426	2
427	1
443	17
444	4
445	1
534	2
535	1
