Mass Spectrum: d-Valine, N-[N-[1,6-dioxo-6-(phenylmethoxy)-5-[[(phenylmethoxy)carbonyl]amino]hexyl]-S-(phenylmethyl)-l-cysteinyl]-, phenylmethyl ester, (S)-
Formula: C43H49N3O8S
CAS: 79761-05-0
Molecular weight: 767
m/z	intensity
26	22
27	115
28	69
29	45
30	18
31	34
33	6
34	8
37	28
38	67
39	317
40	34
41	153
42	83
43	163
44	215
45	192
47	14
49	21
50	188
51	401
52	112
53	90
54	44
55	217
56	94
57	54
58	14
59	12
60	18
61	44
62	95
63	193
64	54
65	502
66	37
67	21
68	36
69	82
70	48
71	52
72	709
73	37
74	70
75	56
76	58
77	665
78	177
79	980
80	119
81	26
82	58
83	39
84	25
85	23
86	23
87	23
88	14
89	187
90	190
91	999
92	699
93	35
94	8
95	13
96	39
97	48
98	259
99	37
100	10
102	42
103	11
104	29
105	82
106	34
107	854
108	999
109	93
110	15
111	24
112	12
113	36
114	16
115	30
116	51
117	28
118	40
121	63
122	44
123	98
124	579
125	68
126	48
127	14
128	8
129	9
130	10
131	22
132	32
133	14
134	48
135	12
136	7
137	33
138	12
139	16
140	11
141	65
142	17
143	9
144	12
146	28
147	7
148	16
149	72
150	16
151	19
152	8
153	21
154	8
155	7
156	28
157	5
158	12
160	12
162	15
164	46
165	28
166	232
167	105
168	50
169	15
170	27
175	42
176	156
177	25
178	14
179	19
180	79
181	16
183	12
186	19
188	88
189	18
192	19
193	46
194	10
195	16
196	66
197	12
202	12
204	17
205	22
206	63
207	12
208	334
209	48
211	14
213	16
214	59
215	11
217	9
221	10
222	21
223	9
229	8
231	16
232	11
234	15
238	21
239	14
246	8
248	57
249	33
250	11
254	17
255	9
256	68
257	50
258	17
260	20
261	10
263	24
275	20
276	12
277	38
278	9
283	9
285	12
287	22
289	9
291	8
292	300
293	57
294	25
301	21
302	10
303	23
304	5
308	11
309	42
310	15
317	8
324	31
325	7
329	10
331	43
332	8
335	66
336	15
338	9
347	16
353	9
356	11
357	24
358	6
361	45
362	8
367	15
368	6
372	5
379	9
383	25
384	13
385	9
391	7
399	88
400	32
401	11
407	15
411	5
416	2
425	15
429	9
434	3
437	7
439	6
444	13
447	8
451	27
452	9
453	14
460	19
461	5
469	16
470	5
471	8
478	3
481	11
482	13
483	4
491	9
508	14
509	5
515	11
516	4
524	10
525	4
535	33
536	16
537	11
542	6
552	2
560	2
561	2
568	102
569	35
570	12
625	1
632	9
633	3
634	2
643	13
644	6
645	3
659	6
660	3
676	20
677	8
678	2
