Mass Spectrum: 1-Oxa-4,7,14,17-tetraazacyclononadecane-5,8,13,16-tetrone
Formula: C14H24N4O5
CAS: 79788-43-5
Molecular weight: 328
m/z	intensity
53	42
54	60
55	951
56	430
57	197
58	176
59	81
60	106
61	197
67	69
68	63
69	120
70	197
71	211
72	380
73	141
74	218
75	67
76	113
81	32
82	54
83	317
84	507
85	352
86	246
87	162
88	999
89	88
95	34
96	58
97	50
98	81
99	190
100	218
101	549
102	282
103	93
104	43
111	387
112	472
113	211
114	106
115	99
117	60
119	54
125	54
126	74
127	53
128	120
130	35
131	577
132	56
133	31
139	134
140	415
141	676
142	246
143	106
144	37
155	54
156	43
157	51
158	39
165	690
167	317
169	120
170	70
171	62
172	61
183	39
184	33
185	197
186	60
187	50
188	211
197	40
198	324
199	88
200	42
211	100
212	176
213	53
214	48
215	41
216	127
224	113
225	64
227	65
228	32
229	218
230	48
241	225
242	387
243	85
245	197
255	74
256	46
268	33
269	69
271	54
272	120
283	45
284	54
285	120
286	366
287	51
328	620
329	183
