Mass Spectrum: 1-Benzoyloxy-2-formyloxybenzene
Formula: C14H10O4
CAS: 79792-93-1
Molecular weight: 242
m/z	intensity
30	3
31	2
37	2
38	8
39	21
40	23
41	14
42	2
43	19
44	34
45	1
49	1
50	38
51	140
52	32
53	22
54	3
55	20
56	6
57	24
58	2
62	3
63	12
64	9
65	6
66	3
67	7
68	2
69	16
70	6
71	14
72	1
73	1
74	8
75	7
76	17
77	461
78	35
79	7
80	8
81	30
82	5
83	13
84	3
85	9
86	1
89	2
91	3
92	3
93	1
94	1
95	8
96	3
97	10
98	1
99	3
102	0
103	1
104	4
105	999
106	77
107	7
108	1
109	10
110	10
111	6
113	2
115	1
121	6
122	8
123	3
125	4
128	1
135	3
136	2
137	2
139	2
141	1
149	1
150	1
151	2
163	1
166	1
197	44
198	6
214	19
215	3
242	2
