Mass Spectrum: 2,2-Bis(4-methylanilino)acetophenone
Formula: C22H22N2O
CAS: 79866-34-5
Molecular weight: 330
m/z	intensity
39	90
40	100
50	60
51	130
53	50
65	200
77	250
78	130
79	60
89	60
91	810
92	60
105	130
106	540
107	480
108	50
118	999
119	110
120	140
223	330
224	80
225	100
