Mass Spectrum: Diethyl (2-(3,3-dimethyl-2-norbornyl)-2-oxoethyl)propanedioate
Formula: C18H28O5
CAS: 79861-76-0
Molecular weight: 324
m/z	intensity
65	120
93	120
94	160
95	200
99	160
107	200
108	500
109	140
123	999
145	250
146	80
151	370
173	620
235	80
257	80
279	80
