Mass Spectrum: Spiro(decalin)-1,2'-(1,3-dioxolane), 4a-hydroxy-5-methyl-4-nitro-
Formula: C13H21NO5
CAS: 79880-73-2
Molecular weight: 271
m/z	intensity
26	3
27	58
28	25
29	62
30	8
31	9
39	59
40	14
41	162
42	67
43	174
44	13
45	75
46	3
50	2
51	11
52	7
53	52
54	18
55	279
56	27
57	41
58	4
59	7
60	3
61	2
62	2
63	4
64	3
65	25
66	15
67	83
68	28
69	86
70	28
71	36
72	7
73	145
74	8
75	3
76	2
77	59
78	13
79	74
80	16
81	102
82	22
83	91
84	24
85	60
86	999
87	353
88	21
89	33
90	3
91	64
92	11
93	119
94	18
95	121
96	24
97	51
98	22
99	392
100	52
101	123
102	12
103	9
104	5
105	39
106	7
107	68
108	14
109	113
110	17
111	47
112	41
113	91
114	15
115	44
116	20
117	20
118	6
119	67
120	15
121	71
122	15
123	42
124	11
125	49
126	31
127	13
128	9
129	164
130	15
131	9
132	3
133	159
134	20
135	77
136	13
137	103
138	16
139	35
140	5
141	17
142	83
143	119
144	27
145	54
146	8
147	6
148	2
149	15
150	4
151	136
152	24
153	14
154	7
155	51
156	10
157	3
159	118
160	94
161	159
162	22
163	52
164	9
165	6
166	2
167	27
168	6
169	11
170	2
171	3
177	2
178	2
179	218
180	30
181	17
182	4
183	115
184	16
185	3
192	5
193	4
194	3
195	6
196	8
197	14
198	4
205	5
206	7
207	87
208	13
209	2
210	2
211	15
212	2
213	1
223	215
224	47
225	72
226	11
227	2
241	71
242	10
243	2
254	2
271	2
