Mass Spectrum: Decahydroazulen-4-one, 1,1-ethylenedioxy-
Formula: C12H18O3
CAS: 79880-95-8
Molecular weight: 210
m/z	intensity
26	1
27	17
28	9
29	8
30	0
31	0
38	1
39	19
40	6
41	31
42	35
43	16
44	1
45	4
46	0
47	0
48	0
50	1
51	3
52	3
53	17
54	10
55	42
56	8
57	2
58	0
59	0
60	0
61	0
62	0
63	1
64	0
65	6
66	5
67	32
68	6
69	3
70	1
71	1
72	0
73	4
74	0
75	0
76	0
77	8
78	2
79	17
80	7
81	14
82	6
83	4
84	1
85	0
86	999
87	160
88	9
89	1
91	6
92	1
93	6
94	2
95	8
96	3
97	4
98	3
99	121
100	24
101	1
102	0
103	0
104	0
105	2
106	1
107	2
108	1
109	7
110	2
111	1
112	3
113	10
114	1
115	0
117	0
118	0
119	2
120	2
121	4
122	1
123	3
124	4
125	29
126	5
127	2
128	0
129	0
130	0
131	0
132	0
133	0
134	0
135	0
136	0
137	3
138	2
139	6
140	1
141	1
142	0
147	0
151	1
152	2
153	23
154	4
155	0
163	0
164	0
165	1
166	0
167	2
168	0
178	0
179	0
180	0
181	1
182	3
183	0
192	0
193	0
209	0
210	25
211	3
212	0
