Mass Spectrum: Cyclopentanone, 2-methyl-3-(1-oxopropyl)-, cis-
Formula: C9H14O2
CAS: 79881-04-2
Molecular weight: 154
m/z	intensity
26	15
27	150
28	68
29	358
30	6
31	4
38	9
39	152
40	25
41	287
42	37
43	50
50	6
51	14
52	7
53	60
54	28
55	293
56	37
57	820
58	29
63	4
65	10
66	5
67	37
68	21
69	999
70	61
71	6
77	10
79	18
80	25
81	33
82	6
83	127
84	10
85	13
86	10
91	4
93	6
95	9
96	9
97	235
98	60
99	81
100	21
101	3
107	5
109	5
111	35
112	9
113	3
123	5
125	100
126	355
127	31
129	5
139	11
154	381
155	38
