Mass Spectrum: Cyclohexanecarboxylic acid, 4-pentyl-, 4-fluorophenyl ester
Formula: C18H25FO2
CAS: 79912-83-7
Molecular weight: 292
m/z	intensity
27	113
28	44
29	195
39	107
41	450
42	34
43	247
53	80
54	101
55	645
56	45
57	281
65	18
67	231
68	49
69	364
70	25
71	226
77	23
79	69
81	256
83	790
84	68
85	35
95	143
97	999
98	80
109	47
111	286
112	284
113	21
153	259
154	34
181	300
182	38
292	6
