Mass Spectrum: 1-(3-(Uracil-1-yl)propyl)-6-azathymine
Formula: C11H13N5O4
CAS: 79936-29-1
Molecular weight: 279
m/z	intensity
27	391
28	531
29	71
39	70
40	141
41	414
42	839
43	104
44	52
52	102
53	172
54	238
55	999
67	101
68	412
69	122
70	41
71	40
80	41
81	637
82	226
83	41
84	61
95	61
96	537
97	122
99	144
100	51
109	41
110	40
112	275
113	248
123	40
125	71
126	431
127	61
139	668
140	309
141	41
150	144
152	451
153	72
154	40
166	102
167	205
168	61
238	61
278	123
279	123
