Mass Spectrum: 1-(6-Azauracil-1-yl)-3-(5-ethyluracil-1-yl)-propane
Formula: C12H15N5O4
CAS: 79957-18-9
Molecular weight: 293
m/z	intensity
42	999
43	449
55	856
56	989
67	288
68	571
81	311
82	225
93	27
94	27
95	103
96	238
97	44
98	288
99	45
100	45
108	109
109	108
110	477
111	259
112	46
123	104
124	70
125	546
126	240
127	51
128	51
138	28
139	80
140	317
141	284
142	107
151	27
152	130
153	303
154	948
155	82
165	104
166	47
167	448
168	133
178	57
179	46
180	186
181	84
194	110
195	32
227	49
293	518
294	153
