Mass Spectrum: 1H-1,2,4-Triazole-1-ethanol, .alpha.-butyl-.alpha.-(2,4-dichlorophenyl)-, (.+/-.)-
Formula: C14H17Cl2N3O
CAS: 79983-71-4
Molecular weight: 313
m/z	intensity
15	1
26	2
27	42
28	95
29	72
30	4
31	4
36	1
37	1
38	2
39	29
40	13
41	105
42	13
43	109
44	3
45	11
49	1
50	10
51	14
52	3
53	12
54	9
55	137
56	112
57	33
58	50
59	24
60	1
61	2
62	4
63	17
64	2
65	5
66	1
67	5
68	1
69	4
70	37
71	35
72	3
73	8
74	18
75	51
76	13
77	19
78	3
79	3
80	1
82	384
83	999
84	52
85	16
86	4
87	6
88	3
89	41
90	7
91	5
92	1
96	1
97	4
98	2
99	20
100	8
101	17
102	16
103	14
104	4
105	1
107	1
108	1
109	33
110	20
111	98
112	28
113	33
114	13
115	23
116	5
117	3
118	3
119	1
121	1
122	1
123	28
124	16
125	61
126	12
127	24
128	11
129	4
130	2
131	14
132	6
133	6
134	1
135	15
136	19
137	12
138	14
139	37
140	9
141	19
142	11
143	9
144	4
145	63
146	15
147	59
148	12
149	30
150	10
151	9
152	8
153	9
154	8
155	5
156	4
157	2
158	2
159	164
160	13
161	106
162	14
163	22
164	5
165	6
166	7
167	12
168	6
169	4
170	3
171	22
172	7
173	140
174	15
175	223
176	21
177	111
178	30
179	24
180	10
181	3
182	1
183	3
184	1
185	8
186	5
187	16
188	21
189	22
190	14
191	12
192	5
193	3
194	1
195	2
196	2
197	2
198	1
199	1
200	1
201	5
202	1
203	4
204	2
205	1
206	2
208	1
211	1
212	1
213	11
214	460
215	52
216	296
217	32
218	52
219	6
220	6
221	2
222	2
223	1
225	1
226	1
227	1
228	1
229	1
231	168
232	21
233	107
234	13
235	18
236	2
254	1
256	77
257	9
258	52
259	7
260	11
261	1
262	1
271	2
273	1
278	13
279	2
280	4
281	1
313	1
314	1
315	1
316	1
