Mass Spectrum: Bis(2-(4,6-dioxo-heptan-2-ylideneamino)ethyl)sulfide
Formula: C18H28N2O4S
CAS: 79990-53-7
Molecular weight: 368
m/z	intensity
43	498
45	259
54	69
58	476
69	216
70	55
84	203
85	999
96	232
100	276
103	16
110	90
111	35
112	43
113	21
114	25
115	69
116	82
117	828
118	65
119	22
141	43
142	713
143	57
144	35
154	97
155	21
156	16
167	227
168	525
169	43
170	21
201	653
202	51
215	17
227	25
228	9
248	8
259	9
267	8
274	9
285	52
286	52
294	3
310	13
328	3
351	3
368	8
369	13
