Mass Spectrum: Benzenesulfonamide, N,4-dimethyl-N-nitroso-
Formula: C8H10N2O3S
CAS: 80-11-5
Molecular weight: 214
m/z	intensity
26	1
27	7
28	7
29	1
30	39
31	0
36	0
37	0
38	4
39	63
40	6
41	23
42	7
43	104
44	2
45	4
46	0
48	0
49	0
50	14
51	26
52	9
53	5
54	0
55	0
57	0
58	0
59	44
60	0
61	1
62	8
63	39
64	11
65	196
66	12
67	3
68	0
69	1
70	0
71	0
74	3
75	3
76	3
77	22
78	7
79	9
80	1
81	0
82	0
83	0
84	0
85	0
86	1
87	1
88	0
89	38
90	17
91	999
92	96
93	7
94	0
95	0
97	0
103	0
104	1
105	2
106	2
107	27
108	4
109	0
110	0
111	2
117	0
118	2
119	1
120	11
121	6
122	3
123	1
124	1
125	0
139	18
140	1
141	0
155	322
156	31
157	17
158	1
168	0
170	0
172	0
183	0
184	0
185	18
186	4
187	0
199	0
214	8
215	0
216	0
