Mass Spectrum: Dicumyl peroxide
Formula: C18H22O2
CAS: 80-43-3
Molecular weight: 270
m/z	intensity
41	67
43	158
44	11
45	3
48	2
50	8
51	53
52	6
53	3
54	2
55	8
56	2
57	10
59	1
63	6
64	5
65	15
66	2
67	2
69	17
70	0
71	2
73	3
74	2
75	2
76	0
77	141
78	21
79	22
80	1
81	2
82	4
83	1
89	3
91	160
92	13
93	1
94	1
95	14
96	1
100	0
102	1
103	18
105	69
106	6
107	7
115	6
117	11
119	999
120	84
121	6
131	4
133	2
135	16
136	0
148	7
149	3
150	2
164	2
175	2
177	4
195	2
211	2
219	6
255	2
269	0
270	5
271	1
