Mass Spectrum: Methyl methacrylate
Formula: C5H8O2
CAS: 80-62-6
Molecular weight: 100
m/z	intensity
14	4
15	53
16	1
25	3
26	14
27	20
28	14
29	47
30	9
31	11
33	8
36	3
37	35
38	77
39	508
40	114
41	999
42	58
43	25
44	5
45	25
46	1
49	1
50	4
51	3
52	2
53	24
54	17
55	72
56	41
57	14
58	11
59	112
60	4
61	2
66	1
67	3
68	19
69	893
70	44
71	8
72	8
73	3
81	2
82	43
83	4
85	77
86	3
99	193
100	372
101	22
102	2
