Mass Spectrum: Tartronic acid
Formula: C3H4O5
CAS: 80-69-3
Molecular weight: 120
m/z	intensity
26	2
27	4
28	42
29	926
30	543
31	174
32	16
33	1
34	0
35	0
36	3
37	0
38	1
39	4
41	31
42	22
43	13
44	249
45	320
46	45
47	19
48	3
49	0
50	0
51	1
52	0
53	2
54	1
55	8
56	15
57	9
58	999
59	24
60	17
61	4
62	0
63	3
64	0
65	3
66	3
67	2
68	1
69	7
70	2
71	4
72	1
73	10
74	1
75	89
76	443
77	13
93	4
94	0
105	2
106	0
120	0
121	6
122	1
