Mass Spectrum: 3-Amino-2-oxazolidinone
Formula: C3H6N2O2
CAS: 80-65-9
Molecular weight: 102
m/z	intensity
41	259
42	278
43	999
44	251
45	136
47	11
49	33
51	9
55	13
56	24
57	78
58	171
59	16
72	2
76	2
84	10
86	4
102	151
103	12
