Mass Spectrum: o-Nitrobenzenesulfonic acid
Formula: C6H5NO5S
CAS: 80-82-0
Molecular weight: 203
m/z	intensity
14	6
15	1
16	9
17	2
18	8
25	2
26	14
27	48
28	40
29	10
30	695
31	3
32	8
36	3
37	45
38	120
39	439
40	19
41	10
42	4
43	7
44	10
45	19
46	31
47	2
48	30
49	22
50	639
51	182
52	111
53	87
54	7
55	17
56	2
57	6
58	5
59	1
60	3
61	21
62	52
63	358
64	491
65	999
66	69
67	11
68	5
69	31
70	20
71	4
72	2
73	31
74	222
75	196
76	295
77	249
78	78
79	14
80	40
81	315
82	20
83	4
84	3
85	2
86	1
87	3
88	3
89	2
90	4
91	65
92	627
93	443
94	66
95	17
96	8
97	2
99	1
104	2
105	4
106	22
107	5
108	7
109	687
110	48
111	5
112	2
113	1
122	123
123	215
124	15
125	2
135	1
138	5
139	201
140	16
141	2
149	1
155	25
156	5
157	6
158	2
173	35
174	5
175	2
185	3
186	7
187	11
188	1
203	426
204	33
205	23
206	2
