Mass Spectrum: Chloracyzine
Formula: C19H21ClN2OS
CAS: 800-22-6
Molecular weight: 360
m/z	intensity
15	3
18	4
25	1
26	8
27	53
28	29
29	32
30	103
31	2
36	1
37	1
38	3
39	10
40	4
41	8
42	47
43	9
44	48
45	24
46	1
47	1
49	1
50	13
51	10
52	4
53	2
54	4
55	95
56	43
57	21
58	191
59	7
60	1
61	2
62	9
63	27
64	5
65	3
68	1
69	42
70	15
71	11
72	51
73	44
74	13
75	17
76	9
77	7
78	2
79	5
80	1
81	6
82	10
83	1
84	20
86	999
87	62
88	5
89	4
90	2
91	1
92	1
93	10
94	6
95	18
96	4
97	3
98	16
99	9
100	7
101	6
102	5
103	3
104	1
105	3
106	3
107	9
108	10
109	3
110	2
111	3
112	5
113	4
114	4
115	2
116	4
117	2
118	2
119	3
120	7
121	3
122	2
123	2
124	2
125	10
126	23
127	11
128	64
129	7
130	1
131	1
132	2
133	2
134	2
135	1
136	1
137	4
138	5
139	6
140	8
141	1
142	4
143	1
144	4
145	5
146	8
147	2
148	1
149	2
150	3
151	6
152	27
153	48
154	12
155	2
156	2
157	1
158	1
159	2
160	2
161	3
162	9
163	3
164	29
165	11
166	6
167	2
168	1
169	14
170	18
171	14
172	4
173	5
174	9
175	3
176	3
177	1
178	1
179	2
180	2
181	1
182	1
183	1
184	1
186	1
187	5
188	35
189	6
190	12
191	2
192	1
193	2
194	2
195	5
196	96
197	85
198	37
199	9
200	27
201	12
202	9
203	4
204	1
205	8
206	3
207	3
208	1
209	1
210	1
211	2
212	1
214	1
222	1
223	2
224	1
225	1
230	2
231	10
232	466
233	220
234	196
235	80
236	16
237	3
239	1
245	1
246	3
247	1
248	1
253	1
257	1
258	1
259	1
275	1
287	74
288	15
289	29
290	5
291	2
331	4
332	1
333	1
345	5
346	1
347	2
348	1
360	5
361	1
362	2
363	1
