Mass Spectrum: Aniline, N-(4-nitrobenzylidene)-4-phenylazo-
Formula: C19H14N4O2
CAS: 80039-92-5
Molecular weight: 330
m/z	intensity
37	6
38	25
39	106
40	30
41	12
42	2
43	10
44	11
45	2
46	2
50	195
51	402
52	36
53	4
54	0
58	0
59	0
63	166
64	46
65	27
66	4
67	1
68	0
69	3
70	2
71	3
72	0
75	74
76	277
77	999
78	82
79	7
80	0
89	54
90	15
91	11
92	6
93	4
94	0
102	28
103	36
104	12
105	163
106	11
107	0
114	10
115	21
116	5
117	1
118	1
119	1
120	1
121	0
122	0
126	36
127	24
128	28
129	7
130	0
139	28
140	29
141	8
142	1
150	43
151	205
152	173
153	69
154	9
155	1
166	25
167	39
168	10
169	2
170	0
177	77
178	398
179	352
180	52
181	5
182	0
194	10
195	22
196	3
197	1
198	0
199	7
200	1
201	0
202	1
203	0
208	61
209	15
210	1
215	0
225	486
226	79
227	9
228	3
229	0
240	0
241	1
242	0
243	0
253	83
254	17
255	6
256	1
300	1
301	0
302	0
314	0
330	145
331	24
332	4
333	0
