Mass Spectrum: S,S-Bis(p-cyanophenoxy)-N-pentafluorosulfanylsulphilimine
Formula: C14H8F5N3O2S2
CAS: 80039-34-5
Molecular weight: 409
m/z	intensity
46	999
64	319
89	161
90	603
91	127
118	301
119	524
127	342
164	271
291	326
390	4
393	2
395	2
409	2
