Mass Spectrum: S,S-Diisocyanato-N-pentafluorosulphanylsulfilimine
Formula: C2F5N3O2S2
CAS: 80044-07-1
Molecular weight: 257
m/z	intensity
42	41
43	22
44	28
46	700
47	103
48	67
51	23
54	10
62	15
64	37
65	48
67	65
70	999
71	37
72	12
78	9
81	7
84	15
89	250
91	14
103	27
104	19
108	21
112	61
124	9
127	600
128	3
129	39
130	217
131	10
132	11
143	8
149	10
150	43
168	6
169	14
173	9
192	42
194	4
215	50
217	5
238	1
