Mass Spectrum: 2-Benzyl-2,3-dihydro-4,6-dihydroxy-3-methyl-1-oxo(1H)pyrrolo[3,4-c]pyridine
Formula: C15H14N2O3
CAS: 80049-24-7
Molecular weight: 270
m/z	intensity
41	30
42	22
43	17
44	13
45	4
50	20
51	67
52	27
53	29
54	9
55	8
56	9
57	3
58	2
60	0
62	8
63	41
64	3
65	242
66	81
67	38
68	5
69	1
70	16
71	5
73	3
74	3
75	4
76	4
77	61
78	32
79	25
80	17
81	9
82	2
83	7
84	0
85	6
86	0
87	0
89	38
91	999
92	89
93	23
94	13
95	12
96	4
97	1
98	0
99	14
101	0
102	2
103	4
104	32
105	6
106	123
107	13
108	8
109	18
110	4
111	4
113	0
115	7
116	2
117	5
118	4
119	4
120	8
121	10
122	13
123	4
124	2
126	0
127	5
128	8
129	4
130	16
131	43
132	12
133	1
134	0
135	1
136	10
137	30
138	13
139	5
141	5
142	0
143	1
144	1
146	6
147	1
148	1
149	3
151	12
152	2
153	3
154	6
155	5
156	17
157	3
158	0
159	0
161	1
162	0
163	1
164	6
165	6
166	14
167	3
168	4
169	3
170	17
171	7
172	0
179	13
180	3
181	1
182	4
183	2
184	11
185	2
187	0
192	16
193	12
194	1
196	3
197	8
198	12
199	43
200	6
202	0
209	1
210	0
212	1
213	1
224	0
225	2
226	1
227	17
228	3
241	4
242	0
253	1
255	31
256	5
257	0
267	1
268	9
270	383
271	62
272	7
