Mass Spectrum: 1,3,2-Dioxaphospholane, 2-t-butyl-4,5-bis(ethoxycarbonyl)-
Formula: C12H21O6P
CAS: 80043-97-6
Molecular weight: 292
m/z	intensity
26	44
27	145
28	234
29	803
30	24
31	69
32	18
36	4
39	37
40	12
41	291
42	26
43	63
44	30
45	54
46	4
47	72
48	5
49	13
50	5
51	2
53	38
54	25
55	72
56	78
57	999
58	50
59	65
60	27
61	42
62	15
63	26
64	4
65	207
67	4
69	36
70	22
71	162
72	17
73	14
74	4
75	30
76	153
77	69
78	4
79	35
81	23
82	38
83	18
85	6
86	5
87	284
88	45
89	254
90	12
91	40
93	394
94	12
95	14
97	3
98	9
99	202
100	31
101	8
102	4
103	25
104	165
105	61
106	47
107	121
108	5
112	4
113	9
115	16
116	10
117	67
118	7
119	10
120	2
121	792
122	35
123	63
124	4
125	5
126	29
127	193
128	24
129	4
131	4
133	155
134	95
135	316
136	29
137	7
139	7
143	4
145	23
146	3
147	7
149	3
150	2
151	99
152	6
153	4
154	9
155	19
156	13
157	4
160	1
161	8
162	10
163	147
164	8
165	3
166	2
167	3
171	2
173	8
174	2
175	6
176	3
177	5
178	7
179	352
180	25
181	6
182	3
183	3
184	2
185	4
189	5
190	42
191	15
193	2
203	3
205	5
206	7
207	753
208	61
209	13
218	4
219	107
220	12
233	2
234	6
235	301
236	29
237	8
252	4
253	3
277	8
292	47
293	6
294	3
