Mass Spectrum: p-Methylphenyl 2,3,4-tri-O-acetyl-.beta.-L-phamnopyranoside
Formula: C19H24O8
CAS: 80076-96-6
Molecular weight: 380
m/z	intensity
41	26
42	14
43	999
44	62
45	17
50	4
51	15
52	11
53	22
54	2
55	47
57	29
58	17
59	1
60	10
61	15
62	5
63	7
64	2
65	35
66	3
69	80
71	55
73	26
77	71
78	17
79	39
80	14
81	9
82	18
83	409
84	35
85	62
87	26
89	12
90	14
91	62
92	11
95	8
97	19
99	35
100	10
101	24
102	13
103	33
107	149
108	429
109	53
111	999
112	71
113	26
115	31
121	15
125	7
127	80
128	35
129	119
130	8
131	4
133	0
135	5
141	2
143	5
144	3
145	24
146	2
147	5
150	109
151	8
153	659
154	62
155	6
157	12
161	2
163	19
164	0
171	189
172	17
173	5
175	13
176	1
179	3
188	1
189	2
191	7
192	3
193	0
201	0
213	59
214	6
229	1
230	4
231	3
273	299
274	45
