Mass Spectrum: 7-Chloro-1-[[3-[dimethylamino]propyl]imino]-1,3,4,10-tetrahydro-10-hydroxy-3-[4-(trifluoromethyl)phenyl]-2-methyl-9(2H)-acridinone
Formula: C26H27ClF3N3O2
CAS: 80092-60-0
Molecular weight: 505
m/z	intensity
41	8
42	75
43	27
44	46
45	11
47	3
49	1
51	1
53	3
54	4
55	11
56	25
57	28
58	999
59	31
60	3
61	4
63	3
65	4
67	3
68	6
69	9
70	31
71	23
72	163
73	9
75	6
76	4
77	9
78	7
79	2
82	5
83	7
84	91
85	55
86	120
87	5
88	5
89	4
91	4
95	3
97	3
98	7
99	13
100	5
101	5
102	5
103	3
104	3
106	4
109	5
110	4
111	9
112	12
113	6
114	6
115	12
116	6
117	15
119	3
123	3
124	4
125	4
126	7
127	14
128	7
129	4
130	6
133	5
136	5
137	3
138	6
139	6
140	8
141	5
142	3
145	8
146	3
148	5
149	4
150	4
151	9
152	6
153	9
154	8
155	6
159	30
160	4
161	4
162	3
163	4
164	14
165	10
166	10
167	8
168	4
169	4
171	4
173	9
174	3
175	4
176	3
177	4
178	4
179	4
180	5
181	3
182	5
183	8
184	5
185	6
186	4
188	3
189	3
190	4
191	3
192	3
193	3
194	2
195	6
196	5
197	5
198	4
199	3
200	2
201	3
203	6
204	3
205	3
206	3
207	3
208	5
209	6
210	4
211	5
212	9
213	4
214	3
215	3
216	5
217	7
218	7
219	9
220	4
221	5
222	3
223	5
224	5
225	6
226	4
227	2
228	3
229	4
230	7
231	7
232	8
233	5
234	4
235	4
237	3
239	4
240	3
241	4
242	6
243	6
244	8
245	11
246	19
247	5
248	6
251	3
253	2
254	4
255	3
256	3
257	7
258	7
259	12
260	5
261	4
269	4
270	4
271	6
272	3
273	7
275	3
284	2
285	5
352	4
353	3
354	4
356	4
367	3
368	2
369	6
370	3
371	5
372	3
381	3
383	3
384	8
385	3
386	4
387	6
388	6
389	3
390	7
397	9
398	3
401	4
402	3
403	10
404	5
405	11
406	4
407	3
415	4
417	7
418	14
419	5
420	6
421	3
430	3
431	11
432	3
433	4
471	7
489	3
505	10
506	3
507	3
508	1
