Mass Spectrum: 7-Chloro-1,3,4,10-tetrahydro-10-hydroxy-1-[[2-[1-pyrrolidinyl]ethyl]imino]-3-[3-(trifluoromethyl)phenyl]-9(2H)-acridinone
Formula: C26H25ClF3N3O2
CAS: 80092-53-1
Molecular weight: 503
m/z	intensity
42	72
43	11
44	4
49	5
51	3
53	2
54	6
55	36
56	14
57	3
67	3
68	6
69	14
70	9
71	3
75	1
77	1
80	1
82	23
84	999
85	49
86	4
94	1
95	3
96	13
97	23
98	9
99	1
109	3
110	1
111	5
112	1
113	1
114	1
115	1
117	1
125	1
126	3
127	3
128	1
136	1
138	1
139	3
140	4
141	2
145	2
149	1
151	5
152	1
153	3
154	1
159	10
162	1
164	6
165	1
166	4
167	1
172	1
174	1
176	1
177	1
178	1
183	1
188	1
195	1
208	1
215	1
216	3
217	3
218	3
219	3
229	1
230	1
231	2
240	3
241	2
242	1
243	4
244	5
245	3
246	1
255	1
256	1
257	7
258	1
259	4
263	1
269	2
270	2
271	2
290	1
304	3
305	1
306	1
308	1
309	1
310	1
311	1
337	1
338	4
339	2
354	1
356	1
372	4
373	4
374	6
375	2
376	2
387	1
388	1
389	2
390	6
391	7
392	2
393	1
401	10
402	5
403	12
404	4
405	2
406	1
407	1
415	1
416	2
417	4
418	1
419	2
448	2
485	1
487	2
501	1
503	17
504	5
505	5
506	1
