Mass Spectrum: 1-[[2-[Butylamino]butyl]imino]-7-chloro-1,3,4,10-tetrahydro-10-hydroxy-3-[3-(trifluoromethyl)phenyl]-9(2H)-acridinone
Formula: C28H31ClF3N3O2
CAS: 80092-46-2
Molecular weight: 533
m/z	intensity
41	38
42	33
43	17
44	23
45	2
47	4
48	2
49	21
50	1
51	8
53	1
54	4
55	11
56	27
57	39
58	120
59	4
63	1
65	1
67	1
68	3
69	4
70	10
71	12
72	194
73	8
74	2
75	2
77	2
78	2
82	2
83	2
84	38
86	24
88	4
89	1
95	1
96	2
97	2
98	12
99	4
100	5
101	5
102	2
103	1
106	1
109	2
110	3
111	3
112	49
114	999
115	1
116	3
117	1
123	1
124	2
125	3
126	5
127	8
128	8
129	2
130	1
133	1
135	2
136	3
137	1
138	3
139	4
140	5
141	3
142	1
145	3
146	1
147	1
148	2
149	2
150	2
151	5
152	3
153	4
154	3
155	2
159	18
160	1
161	1
162	2
163	2
164	10
165	3
166	6
167	3
168	1
169	1
170	1
171	1
172	3
173	3
174	3
175	1
176	2
177	2
178	3
179	2
180	1
181	1
182	2
183	2
184	1
185	1
186	1
187	1
188	2
189	2
190	1
191	4
192	2
193	1
194	1
195	2
196	1
197	1
198	3
199	2
200	2
201	2
202	2
203	1
204	1
205	1
206	1
207	1
208	2
209	2
210	1
213	1
214	1
215	2
216	5
217	3
218	4
219	3
220	2
221	1
222	1
223	1
224	1
227	1
228	1
229	3
230	5
231	5
232	2
233	1
234	1
235	1
237	22
238	11
240	2
241	3
242	2
243	5
244	6
245	10
246	4
247	2
253	1
255	2
256	1
257	9
258	3
259	7
260	1
261	1
269	2
270	3
271	3
272	1
273	1
290	1
298	1
304	3
305	1
306	2
308	1
309	1
310	1
311	1
318	1
337	1
338	3
339	3
340	1
353	1
354	1
356	1
372	4
373	3
374	8
375	3
376	3
387	2
388	2
389	3
390	4
391	4
392	2
393	1
399	1
400	1
401	11
402	5
403	18
404	15
405	7
406	5
415	4
416	4
417	11
418	5
419	1
420	1
474	2
478	2
498	2
515	4
516	1
517	2
518	1
533	20
534	6
535	6
536	2
