Mass Spectrum: 1,3,2-Dioxaphospholane, 2-t-butyl-4,5-dimethyl-
Formula: C8H17O2P
CAS: 80093-95-4
Molecular weight: 176
m/z	intensity
26	14
27	51
28	20
29	167
30	3
31	3
39	51
40	9
41	192
42	10
43	79
44	4
45	27
46	1
47	37
48	7
49	2
50	8
51	16
52	33
53	18
54	12
55	999
56	134
57	247
58	10
59	7
60	18
61	3
62	61
63	10
65	41
66	9
67	1
71	6
72	12
73	17
75	4
76	2
77	4
78	5
79	41
80	1
83	3
86	1
87	7
88	290
89	17
91	3
92	4
93	3
101	1
103	2
105	3
117	5
118	2
119	406
120	22
121	4
123	2
131	3
132	102
133	7
136	6
137	4
147	6
176	137
177	13
