Mass Spectrum: 7-Chloro-3-[3,4-dichlorophenyl]-1-[[2-[diethylamino]ethyl]imino]-acridin-9(2H)-one
Formula: C25H26Cl3N3O
CAS: 80092-63-3
Molecular weight: 489
m/z	intensity
42	18
43	5
44	5
49	12
51	4
56	20
57	6
58	45
70	4
71	5
72	3
75	3
84	23
86	999
87	56
99	6
111	2
127	2
128	3
136	4
137	3
138	3
139	2
140	3
141	3
148	3
149	5
150	3
152	3
159	13
161	6
163	4
164	6
166	4
174	3
216	3
218	3
219	12
221	3
229	2
230	3
231	3
237	3
239	3
240	4
241	3
243	4
244	8
245	4
246	4
257	4
259	3
269	3
275	3
303	4
304	8
305	3
306	3
338	7
339	9
340	7
341	6
362	2
374	4
376	4
391	13
392	3
393	13
395	3
403	9
404	3
405	8
406	3
407	3
409	2
417	4
419	3
