Mass Spectrum: 7-Chloro-1-[[3-[diethylamino]-2,2-dimethylpropyl]imino]-1,3,4,10-tetrahydro-3[4-(trifluoromethyl)phenyl]-9(2H)-acridinone
Formula: C29H33ClF3N3O
CAS: 80092-69-9
Molecular weight: 531
m/z	intensity
41	1
42	7
49	17
51	5
55	6
56	9
57	9
58	28
72	13
84	21
86	999
87	51
126	6
127	3
128	13
159	7
164	8
166	1
245	5
389	3
391	3
403	7
404	13
405	4
406	3
444	4
445	36
446	12
447	13
448	3
531	4
532	1
533	1
