Mass Spectrum: 7-Chloro-3-[2,4-dichlorophenyl]-1-[[4-[diethylamino]butyl]imino]-1,3,4,10-tetrahydro-9(2H)-acridinone
Formula: C27H30Cl3N3O
CAS: 80092-77-9
Molecular weight: 517
m/z	intensity
41	19
42	74
43	29
44	28
49	3
51	15
55	31
56	72
57	50
58	224
68	5
69	10
70	58
71	55
72	61
73	19
82	5
84	11
85	13
86	999
87	56
97	4
98	78
99	318
100	36
110	4
111	23
112	921
113	163
114	20
125	12
126	35
127	30
128	27
136	12
137	5
138	4
139	9
140	5
151	4
152	5
153	4
159	53
161	36
163	18
164	32
166	21
172	11
174	9
179	11
197	5
216	20
217	18
218	21
219	34
221	9
229	4
230	11
231	20
232	16
240	13
241	11
243	15
244	24
245	23
246	22
247	4
251	21
252	45
253	16
257	10
259	34
261	4
269	10
273	5
275	5
285	5
287	17
297	31
299	5
303	17
304	24
305	10
338	23
339	18
340	24
341	10
342	9
376	15
378	4
391	22
393	17
403	15
405	10
443	18
444	27
445	25
446	22
447	12
517	16
518	4
519	16
520	4
521	6
522	1
