Mass Spectrum: 7-Chloro-3-[2-chlorophenyl]-1-[[[3-dimethylamino]propyl]imino]-1,3,4,10-tetrahydro-9(2H)-acridinone
Formula: C24H25Cl2N3O
CAS: 80092-68-8
Molecular weight: 441
m/z	intensity
42	184
43	56
44	89
45	9
47	21
48	7
49	1
51	0
52	3
53	3
54	5
55	6
56	44
57	55
58	999
59	37
63	5
65	4
67	2
68	6
69	3
70	50
71	37
72	557
73	24
75	13
76	3
77	13
78	2
80	2
82	3
83	4
84	1
85	5
86	0
87	2
88	6
89	7
90	2
91	4
99	8
100	3
101	10
102	10
103	21
104	2
110	3
111	6
112	3
113	5
114	6
115	9
116	3
120	4
123	3
125	58
126	11
127	26
128	7
129	2
130	2
135	3
136	8
137	5
138	13
139	9
140	11
141	4
142	2
147	2
148	2
149	4
150	4
151	5
152	6
153	7
154	6
155	4
162	4
164	22
165	5
166	11
167	5
168	2
169	2
174	3
176	2
177	2
178	3
179	3
180	2
181	2
182	3
183	2
187	2
188	4
189	4
190	3
191	2
193	2
194	2
195	3
196	2
200	3
201	2
202	3
203	2
204	2
209	2
210	2
211	3
213	2
214	3
215	4
216	12
217	11
218	9
219	6
220	3
221	3
223	3
224	2
225	2
227	2
228	4
229	5
230	7
231	10
232	8
233	3
234	2
238	2
239	2
240	9
241	12
242	6
243	6
244	8
245	56
246	10
247	16
248	2
253	2
254	2
255	3
256	2
257	7
258	6
259	40
260	7
261	12
262	2
269	9
270	9
271	5
272	2
273	3
275	2
276	2
277	2
279	2
280	7
281	2
282	2
283	2
284	2
285	2
287	2
288	2
290	2
291	2
292	3
293	2
294	2
301	2
303	3
304	27
305	17
306	21
307	7
308	4
314	2
316	2
317	2
318	5
319	10
320	5
321	4
333	4
335	43
336	17
337	16
338	7
340	6
341	3
342	4
343	2
347	3
348	2
349	8
350	2
351	2
353	14
354	4
355	15
356	6
357	9
358	3
359	2
367	2
369	14
370	207
371	51
372	137
373	28
374	23
375	4
382	21
383	123
384	36
385	75
386	18
387	16
388	2
440	2
441	22
442	8
443	15
444	4
445	2
446	0
448	1
