Mass Spectrum: 7-Chloro-3-[3,4-dichlorophenyl]-1-[[3-[dimethylamino]propyl]imino]-1,3,4,10-tetrahydro-9(2H)-acridinone
Formula: C24H24Cl3N3O
CAS: 80092-61-1
Molecular weight: 475
m/z	intensity
41	28
42	109
43	71
44	140
45	92
46	5
47	2
49	18
50	9
51	20
52	8
53	6
54	4
55	16
56	33
57	50
58	999
59	41
60	5
61	4
62	3
63	10
64	1
65	7
66	1
67	4
68	7
69	10
70	40
71	34
72	373
73	22
74	5
75	17
76	8
77	77
78	207
79	31
80	5
81	17
82	23
83	36
84	87
85	65
86	18
87	10
88	4
89	8
90	2
91	6
92	2
93	2
94	2
95	6
96	2
97	7
98	3
99	17
100	7
101	12
102	13
103	4
104	2
105	4
106	33
107	7
109	5
110	9
111	13
112	6
113	8
114	8
115	9
119	1
121	2
122	2
123	8
124	22
125	10
126	9
127	8
128	9
129	2
130	3
135	6
136	11
137	12
138	9
139	9
140	7
141	3
146	5
147	2
148	5
149	7
150	6
151	9
152	8
153	8
154	10
155	8
156	5
157	7
158	2
159	36
160	8
161	23
162	10
163	23
164	26
165	10
166	14
167	5
168	2
169	2
170	1
171	2
172	11
173	5
174	12
175	4
176	5
177	2
178	2
179	3
180	1
181	1
182	3
183	5
185	2
187	1
188	4
189	6
190	1
191	2
193	3
194	1
195	5
196	1
197	1
200	1
201	1
202	1
211	5
214	1
215	1
216	9
217	9
218	9
219	20
220	5
221	7
229	2
230	6
231	7
232	8
240	3
241	3
243	3
244	5
245	43
246	10
247	15
248	1
257	4
258	4
259	20
260	4
261	7
269	1
271	3
275	1
303	3
304	6
305	3
306	3
321	1
322	4
323	3
324	1
338	5
339	7
340	5
341	3
342	1
348	3
350	3
352	4
353	3
355	1
356	1
357	2
362	2
369	1
370	5
371	1
372	5
373	1
374	2
375	1
376	2
383	2
387	2
388	1
389	5
390	14
391	21
392	9
393	12
394	2
395	2
396	1
403	9
404	42
405	16
406	36
407	11
408	11
409	1
416	3
417	19
418	7
419	11
420	5
421	6
435	1
442	4
443	2
444	3
474	1
475	5
476	2
477	4
478	1
479	1
