Mass Spectrum: 17.beta.-Acetoxy-1',1'-dicarboethoxy-1.beta.,2.beta.-dihydrocycloprop[1,2]-5.alpha.-androst-1-en-3-one
Formula: C28H40O7
CAS: 80097-21-8
Molecular weight: 488
m/z	intensity
20	2
22	0
24	0
25	1
26	10
27	95
28	27
29	284
30	8
31	18
32	1
33	0
34	1
35	1
36	4
37	1
38	5
39	70
40	14
41	224
42	34
43	999
44	29
45	23
46	2
47	3
48	1
49	1
50	6
51	12
52	8
53	65
54	20
55	187
56	48
57	84
58	10
59	11
60	11
61	4
62	2
63	8
64	3
65	37
66	13
67	127
68	20
69	69
70	7
71	42
72	4
73	6
74	5
75	4
76	5
77	107
78	23
79	165
80	29
81	172
82	30
83	52
84	20
85	24
86	6
87	5
88	9
89	6
90	6
91	173
92	37
93	183
94	53
95	96
96	21
97	32
98	14
99	23
100	1
101	5
102	4
103	20
104	19
105	144
106	41
107	115
108	38
109	47
110	20
111	30
112	7
113	13
114	4
115	38
116	19
117	54
118	30
119	93
120	26
121	83
122	48
123	30
124	18
125	19
126	32
127	22
128	22
129	35
130	20
131	71
132	29
133	85
134	38
135	53
136	29
137	25
138	13
139	46
140	18
141	22
142	20
143	42
144	19
145	84
146	38
147	91
148	24
149	44
150	9
151	10
152	6
153	14
154	94
155	30
156	21
157	59
158	21
159	97
160	62
161	75
162	24
163	20
164	5
165	18
166	5
167	53
168	10
169	40
170	11
171	43
172	18
173	61
174	33
175	28
176	12
177	12
178	5
179	15
180	9
181	19
182	23
183	31
184	13
185	58
186	70
187	41
188	21
189	25
190	11
191	11
192	8
193	17
194	7
195	20
196	13
197	32
198	8
199	41
200	105
201	40
202	16
203	10
204	8
205	17
206	8
207	14
208	13
209	14
210	8
211	27
212	16
213	56
214	44
215	29
216	12
217	12
218	10
219	16
220	5
221	11
222	5
223	14
224	7
225	20
226	11
227	23
228	30
229	23
230	9
231	9
232	5
233	12
234	10
235	10
236	8
237	12
238	6
239	32
240	17
241	17
242	10
243	12
244	5
245	8
246	7
247	4
248	5
249	4
250	6
251	12
252	15
253	143
254	31
255	17
256	11
257	8
258	7
259	12
260	33
261	12
262	3
263	9
264	4
265	9
266	6
267	24
268	40
269	28
270	16
271	52
272	17
273	10
274	40
275	10
276	4
277	3
278	5
279	10
280	11
281	13
282	6
283	4
284	7
285	10
286	13
287	14
288	21
289	6
290	6
291	7
292	5
293	10
294	5
295	6
296	5
297	13
298	18
299	14
300	25
301	10
302	9
303	8
304	4
305	2
306	2
307	12
308	20
309	22
310	8
311	9
312	7
313	502
314	129
315	18
316	17
317	7
318	9
319	6
320	2
321	14
322	4
323	5
324	3
325	12
326	12
327	22
328	162
329	113
330	34
331	6
332	3
333	1
334	4
335	11
336	26
337	28
338	7
339	13
340	14
341	10
342	9
343	5
344	5
345	6
346	4
347	1
348	1
349	2
350	4
351	2
352	3
353	19
354	21
355	16
356	6
357	4
358	2
359	1
360	1
361	2
362	2
363	3
364	2
365	4
366	2
367	12
368	36
369	22
370	6
371	4
372	4
373	2
374	2
375	1
376	2
377	9
378	54
379	13
380	4
381	14
382	16
383	24
384	8
385	11
386	4
387	4
388	2
389	2
390	1
391	0
392	2
393	2
394	2
395	7
396	43
397	27
398	12
399	17
400	24
401	8
402	3
403	1
404	1
405	1
406	2
407	1
408	2
409	5
410	4
411	1
412	2
413	10
414	23
415	14
416	7
417	1
418	2
419	0
420	0
421	0
422	2
423	9
424	48
425	17
426	5
427	9
428	7
429	4
430	2
431	2
432	1
433	1
435	0
436	1
437	1
438	2
439	0
440	1
441	13
442	37
443	22
444	6
445	3
446	2
447	0
448	0
449	0
451	1
452	1
453	0
454	1
455	1
456	1
457	1
458	0
459	2
460	3
461	2
462	1
463	0
467	1
468	0
469	1
470	5
471	4
472	2
473	4
474	4
475	1
476	0
477	0
479	0
482	0
483	1
484	0
485	0
486	2
487	10
488	34
489	14
490	4
491	2
