Mass Spectrum: 7-Chloro-3-[2,4-dichlorophenyl]-1-[[2-[diethylamino]ethyl]imino]-1,3,4,10-tetrahydro-9(2H)-acridinone
Formula: C25H26Cl3N3O
CAS: 80092-75-7
Molecular weight: 489
m/z	intensity
42	10
43	4
44	1
56	12
57	4
58	32
70	4
71	4
72	4
78	2
84	7
86	999
87	54
99	8
100	3
101	1
113	1
124	1
128	1
136	2
137	3
138	1
139	1
140	1
149	1
151	2
153	1
154	1
159	8
161	6
162	1
163	4
164	4
165	1
166	2
172	1
174	2
177	1
188	1
190	1
201	1
216	3
217	1
218	1
219	14
220	1
221	5
230	1
231	2
232	1
240	1
241	1
244	3
245	1
246	2
251	1
255	1
257	1
259	1
269	1
275	1
277	0
278	1
303	3
304	5
305	2
306	1
331	1
338	7
339	6
340	6
341	4
342	1
354	1
365	1
367	2
369	1
375	1
376	1
391	21
392	4
393	20
394	6
395	4
403	9
404	3
405	8
406	4
407	1
413	1
415	2
416	1
417	2
418	0
419	1
