Mass Spectrum: 4H-Pyran, 2,4,6-triphenyl-
Formula: C23H18O
CAS: 801-06-9
Molecular weight: 310
m/z	intensity
12	1
15	2
16	1
17	2
18	6
25	0
26	4
27	34
28	6
29	9
31	0
37	2
38	4
39	48
40	3
41	3
42	1
43	1
44	1
50	69
51	323
52	45
53	11
54	1
55	8
56	0
57	1
61	2
62	14
63	57
64	8
65	17
66	2
69	1
71	1
74	35
75	54
76	112
77	999
78	114
79	10
80	1
82	1
83	1
85	1
86	6
87	13
88	10
89	47
90	17
91	32
92	2
94	2
98	5
99	6
100	6
101	35
102	109
103	68
105	522
106	43
107	6
110	2
111	2
112	2
113	8
114	5
115	32
116	12
118	2
119	2
122	1
123	1
125	3
126	34
127	113
128	43
129	8
130	2
131	13
132	4
133	2
134	1
135	1
137	3
138	3
139	10
140	1
141	2
144	5
145	2
146	1
147	1
149	2
150	9
151	13
152	19
153	5
155	21
156	2
161	1
162	2
163	8
164	6
165	42
166	12
167	8
168	1
174	2
175	3
176	16
177	10
178	43
179	17
180	2
181	1
187	3
189	41
190	47
191	40
192	7
193	1
194	1
200	10
201	11
202	97
203	106
204	77
205	130
206	20
207	6
208	1
209	1
213	1
214	1
215	19
216	3
217	1
218	2
219	3
220	4
221	1
224	0
226	1
228	0
231	18
232	23
233	289
234	50
235	5
236	0
239	2
241	0
250	0
252	2
253	1
254	0
263	1
265	4
266	1
267	1
268	0
276	2
277	1
278	1
279	1
281	2
282	1
289	1
290	1
291	3
292	2
293	1
295	1
309	45
310	138
311	34
312	4
