Mass Spectrum: 7-Chloro-1-[[3-[diethylamino]propyl]imino]-1,3,4,10-tetrahydro-10-hydroxy-3-[4-(trifluoromethyl)phenyl]-9(2H)-acridinone
Formula: C27H29ClF3N3O2
CAS: 80108-16-3
Molecular weight: 519
m/z	intensity
41	54
42	71
43	44
44	51
45	8
46	31
49	14
50	5
51	14
52	6
53	5
54	10
55	19
56	79
57	46
58	136
59	6
60	6
63	13
65	6
67	6
68	10
69	18
70	41
71	37
72	92
74	59
75	18
76	7
77	15
78	15
82	8
83	9
84	83
86	999
87	60
88	8
89	19
90	6
91	5
95	6
96	8
97	8
98	157
99	32
100	315
101	30
102	10
103	13
106	7
109	10
110	14
111	19
112	44
113	55
114	29
115	12
116	6
120	5
123	6
124	10
125	14
126	16
127	28
128	13
129	6
130	5
133	10
136	9
137	8
138	13
139	12
140	15
141	9
145	15
146	8
147	5
148	6
149	6
150	7
151	23
152	12
153	25
154	13
155	10
156	5
159	37
160	9
161	5
162	7
163	12
164	24
165	11
166	15
167	7
168	5
169	8
170	5
171	14
172	22
173	13
174	7
175	8
176	6
177	7
178	9
179	8
180	9
181	5
182	8
183	8
185	6
186	5
188	7
189	6
190	8
191	6
195	9
196	5
199	11
200	6
201	5
202	9
203	7
204	5
209	7
211	6
213	6
215	6
216	14
217	14
218	12
219	20
220	8
221	8
224	7
228	5
229	7
230	12
231	10
232	10
233	5
234	6
240	7
241	8
242	6
243	8
244	28
245	41
246	14
247	12
248	5
252	8
255	7
256	6
257	12
258	9
259	19
261	6
262	7
269	8
270	8
271	9
273	6
280	9
281	6
284	5
285	6
304	9
305	5
306	6
309	5
321	6
338	7
339	6
348	6
356	5
357	6
360	6
362	9
364	9
366	7
369	5
370	7
372	10
373	14
374	28
375	11
376	11
387	13
388	13
389	18
390	29
391	50
392	18
393	16
399	5
401	25
402	16
403	29
404	93
405	29
406	33
407	23
408	6
409	6
415	11
416	7
417	24
418	12
419	10
420	8
424	17
425	9
426	14
427	9
428	8
429	16
430	16
431	11
432	6
442	6
446	20
447	6
448	7
502	6
503	19
504	7
505	6
519	52
520	16
521	19
522	5
