Mass Spectrum: 1-Cyclopentene-1-methanol, 2-methyl-5-(1-methylethyl)-
Formula: C10H18O
CAS: 80113-82-2
Molecular weight: 154
m/z	intensity
26	3
27	98
28	16
29	55
31	22
38	4
39	94
40	14
41	208
42	16
43	265
44	11
45	36
50	7
51	28
52	14
53	68
54	11
55	239
56	22
57	45
58	13
59	6
63	10
64	3
65	41
66	21
67	176
68	28
69	97
70	17
71	29
72	5
77	192
78	44
79	171
80	28
81	269
82	53
83	63
84	22
85	14
91	213
92	33
93	999
94	206
95	165
96	38
97	24
98	5
99	6
101	10
103	6
105	30
106	6
107	32
108	7
109	39
110	113
111	965
112	79
113	35
115	4
119	10
120	3
121	56
122	13
123	35
124	8
125	5
127	5
135	8
136	37
137	17
138	29
139	13
142	3
151	3
154	262
155	32
156	4
