Mass Spectrum: Remoxipride
Formula: C16H23BrN2O3
CAS: 80125-14-0
Molecular weight: 370
m/z	intensity
41	19
42	13
43	21
44	4
45	1
49	1
50	3
51	3
52	1
53	6
54	8
55	10
56	15
57	1
58	3
59	1
61	1
62	4
63	7
64	1
65	4
66	1
67	3
68	19
69	10
70	55
71	3
72	1
73	1
74	1
75	5
76	7
77	8
78	10
79	3
80	4
81	1
82	11
83	6
84	2
85	1
88	1
89	1
90	3
91	2
92	2
93	1
94	1
95	1
96	18
98	999
99	70
100	2
102	1
103	1
104	1
105	2
106	4
107	2
108	2
109	1
110	3
111	13
112	3
113	1
116	1
117	1
118	1
119	2
120	1
121	1
133	1
134	3
135	2
136	1
141	1
142	1
143	1
144	1
145	1
146	1
147	1
148	1
149	6
150	1
151	1
153	1
154	2
155	3
156	2
157	9
158	1
159	6
160	1
161	1
163	1
164	1
165	2
169	1
170	6
171	1
172	6
173	1
174	1
175	1
182	1
183	1
185	25
186	3
187	24
188	2
197	1
198	1
199	1
200	5
201	1
202	4
203	1
211	1
212	1
213	2
214	2
215	2
216	1
217	1
226	1
228	38
229	5
230	37
231	4
232	1
240	1
241	1
243	42
244	3
245	41
246	4
247	1
273	1
275	1
341	1
343	1
353	1
355	1
368	1
369	1
370	1
371	1
