Mass Spectrum: 4-Cyclohexene-1,2-dicarboxylic acid, 4-(2-methyl-2-propenyl)-, diethyl ester, trans--
Formula: C16H24O4
CAS: 80137-89-9
Molecular weight: 280
m/z	intensity
25	2
26	25
27	295
28	34
29	999
30	23
31	26
34	0
36	0
37	1
38	7
39	181
40	16
41	191
42	13
43	54
44	11
45	31
46	1
47	14
48	0
49	0
50	11
51	51
52	27
53	92
54	12
55	465
56	67
57	24
58	2
59	4
60	2
61	2
62	12
63	21
64	7
65	65
66	19
67	43
68	8
69	15
70	3
71	5
72	1
73	17
74	4
75	11
76	5
77	196
78	85
79	297
80	34
81	22
82	5
83	8
84	4
85	5
86	10
87	6
88	5
89	11
90	8
91	726
92	102
93	99
94	14
95	13
96	2
97	3
98	1
99	11
100	2
101	10
102	5
103	17
104	14
105	162
106	43
107	35
108	4
109	5
110	3
111	4
112	3
113	3
114	4
115	31
116	18
117	109
118	33
119	68
120	12
121	8
122	9
123	36
124	5
125	4
126	2
127	5
128	7
129	9
130	5
131	69
132	228
133	804
134	104
135	34
136	23
137	7
138	1
139	1
140	0
142	0
143	4
144	1
145	12
146	3
147	4
148	1
149	8
150	4
151	28
152	6
153	2
154	1
155	0
156	0
157	0
158	0
159	14
160	21
161	55
162	8
163	19
164	44
165	9
166	1
173	1
175	0
176	1
177	66
178	19
179	8
180	2
181	5
182	7
184	0
185	0
187	0
188	3
189	5
190	1
191	24
192	4
193	0
194	0
195	4
196	3
199	0
201	1
202	2
203	2
204	2
205	9
206	294
207	59
208	6
209	0
219	0
226	0
228	0
229	0
232	0
233	0
234	167
235	146
236	21
237	2
238	0
280	10
281	1
