Mass Spectrum: 3-Cyclopentene-1,2-dicarboxylic acid, 4-methyl-, dimethyl ester, trans-
Formula: C10H14O4
CAS: 80137-87-7
Molecular weight: 198
m/z	intensity
25	10
27	91
28	21
29	27
30	5
31	10
33	3
37	2
38	11
39	102
40	18
41	76
42	5
43	19
44	6
45	20
49	1
50	19
51	62
52	46
53	77
54	11
55	95
56	6
57	2
58	6
59	355
60	9
61	4
62	3
63	14
64	4
65	30
66	8
67	68
68	6
69	4
71	3
74	2
75	15
76	4
77	183
78	161
79	999
80	224
81	32
82	10
83	2
85	4
87	2
88	2
89	1
91	11
92	3
93	23
94	4
95	22
96	6
97	3
102	1
104	2
105	17
106	51
107	357
108	32
109	12
110	109
111	66
112	7
113	2
114	3
115	4
116	2
121	4
122	3
123	8
124	2
125	1
133	2
134	1
136	2
137	21
138	750
139	395
140	36
141	2
165	2
166	260
167	36
168	3
198	9
