Mass Spectrum: 3-Cyclpentene-1,2-dicarboxylic acid, 4-methyl-, diethyl ester
Formula: C12H18O4
CAS: 80137-86-6
Molecular weight: 226
m/z	intensity
27	290
28	31
29	999
30	23
31	23
37	2
38	12
39	113
40	24
41	103
42	9
43	73
44	14
45	17
46	2
47	2
49	2
50	19
51	64
52	52
53	95
54	12
55	48
56	2
57	5
58	1
59	1
60	1
61	1
62	3
63	15
64	5
65	37
66	14
67	96
68	7
69	15
70	1
71	3
73	7
74	4
75	9
76	5
77	188
78	115
79	636
80	483
81	281
82	19
83	5
84	1
85	2
89	2
91	14
92	3
93	190
94	21
95	15
96	29
97	52
98	7
99	5
100	1
101	3
102	2
103	1
104	1
105	9
106	34
107	307
108	37
109	18
110	3
111	4
112	2
113	3
117	1
119	1
121	1
122	1
123	28
124	115
125	122
126	10
127	5
128	2
129	4
130	1
131	1
133	1
134	1
135	1
136	1
137	3
139	1
144	2
145	1
149	2
150	2
151	13
152	783
153	443
154	45
155	7
166	1
167	1
179	5
180	176
181	43
182	7
183	2
226	31
227	5
228	1
