Mass Spectrum: 1-Chloro-1,1-dimethyl-4,4,4,-trivinyldisilethylene
Formula: C10H19ClSi2
CAS: 80153-57-7
Molecular weight: 230
m/z	intensity
54	177
57	228
58	270
59	246
71	171
72	10
73	32
81	147
82	46
83	398
84	50
85	221
86	535
87	67
88	20
93	157
94	21
95	49
97	198
98	42
99	16
108	57
109	999
110	164
111	58
117	19
174	73
175	81
176	190
177	57
178	59
179	30
202	71
203	80
204	28
215	53
217	19
230	30
232	8
