Mass Spectrum: 1-Methyl-1,1-dichloro-4,4,4-trivinyldisilethylene
Formula: C9H16Cl2Si2
CAS: 80153-59-9
Molecular weight: 250
m/z	intensity
55	7
57	28
83	160
84	19
85	7
109	999
110	117
111	50
117	30
119	8
196	68
197	31
198	50
199	14
209	34
210	4
211	23
212	2
222	24
223	19
224	21
225	10
235	4
237	2
