Mass Spectrum: Cyclopentane-trans-1,2-dicarboxamide
Formula: C7H12N2O2
CAS: 80193-06-2
Molecular weight: 156
m/z	intensity
24	0
25	1
26	33
27	229
28	46
29	66
30	58
31	5
33	2
34	2
36	1
37	15
38	59
39	485
40	177
41	772
42	135
43	53
44	999
45	91
46	60
47	3
48	0
49	1
50	15
51	39
52	39
53	142
54	58
55	184
56	44
57	14
58	3
59	46
60	3
61	5
62	11
63	27
64	13
65	153
66	122
67	722
68	493
69	788
70	81
71	11
72	595
73	28
74	2
75	1
76	1
77	13
78	6
79	10
80	23
81	8
82	19
83	52
84	42
85	921
86	69
87	5
88	0
89	0
90	1
91	4
92	8
93	15
94	88
95	508
96	99
97	33
98	291
99	16
100	2
102	0
103	0
104	0
105	2
106	0
107	0
108	0
109	5
110	68
111	553
112	898
113	576
114	51
115	93
116	5
117	1
118	0
119	2
120	3
121	2
122	19
123	2
124	1
125	0
127	1
128	4
129	0
131	1
132	0
133	1
134	0
137	3
138	15
139	770
140	156
141	13
142	1
143	0
145	0
146	0
147	1
149	0
151	0
152	0
153	0
154	0
155	2
156	52
157	17
158	1
159	0
