Mass Spectrum: 4-Cyclopentene-1,3-dione, 2-bromo-4-phenyl-
Formula: C11H7BrO2
CAS: 80213-57-6
Molecular weight: 250
m/z	intensity
26	15
27	26
28	1
29	7
31	3
36	1
37	19
38	39
39	94
40	6
41	16
42	2
43	2
44	2
45	1
48	0
49	17
50	158
51	141
52	85
53	11
54	0
55	1
56	1
57	25
58	3
59	1
60	2
61	37
62	87
63	157
64	19
65	37
66	3
69	18
70	1
71	61
72	1
73	18
74	136
75	124
76	174
77	35
78	4
79	8
80	2
81	7
82	2
84	2
85	20
86	30
87	58
88	30
89	63
90	6
91	4
92	32
93	5
94	31
95	1
97	6
98	23
99	11
100	5
101	24
102	563
103	58
104	2
105	9
106	1
109	2
110	3
111	2
112	1
113	31
114	77
115	999
116	85
117	5
118	1
119	2
120	32
121	1
122	29
123	1
125	1
126	8
127	5
128	1
129	18
130	2
131	0
141	0
142	19
143	25
144	2
147	0
158	0
165	0
166	0
167	1
168	1
169	2
170	23
171	666
172	72
173	7
174	0
176	1
180	0
182	1
193	3
194	0
195	3
206	0
222	0
224	0
250	67
251	9
252	68
253	9
254	0
