Mass Spectrum: Benzenepropanol, .alpha.-1-propenyl-
Formula: C12H16O
CAS: 80227-73-2
Molecular weight: 176
m/z	intensity
26	8
27	93
28	17
29	28
30	1
31	22
36	0
37	2
38	11
39	136
40	17
41	163
42	23
43	127
44	16
45	7
50	28
51	90
52	25
53	97
54	7
55	21
56	5
57	23
58	4
61	1
62	10
63	39
64	11
65	128
66	13
67	48
68	11
69	56
70	19
71	999
72	165
73	10
74	8
75	10
76	11
77	123
78	95
79	76
80	18
81	6
82	1
83	40
84	26
85	59
86	8
87	2
88	1
89	23
90	12
91	662
92	276
93	25
94	1
95	1
97	4
98	5
99	0
101	3
102	12
103	57
104	84
105	179
106	51
107	11
108	3
114	1
115	24
116	11
117	20
118	8
119	3
120	2
121	3
127	10
128	38
129	134
130	22
131	7
132	4
133	53
134	11
135	1
139	1
141	10
142	9
143	98
144	12
145	2
147	6
148	11
149	7
150	1
152	1
153	0
155	2
157	9
158	102
159	19
160	2
161	37
162	9
174	2
175	2
176	242
177	58
178	5
