Mass Spectrum: Thieno[3,4-d]-1,3-dithiol-2-thione
Formula: C5H2S4
CAS: 80229-39-6
Molecular weight: 190
m/z	intensity
39	50
43	110
44	180
45	990
50	50
55	100
56	50
57	200
64	130
68	130
69	999
70	210
71	80
76	270
81	110
82	110
88	130
89	120
90	50
100	50
101	130
114	70
126	70
146	270
147	20
148	40
190	400
191	50
192	80
