Mass Spectrum: Cyclobutylsilane
Formula: C4H10Si
CAS: 80249-73-6
Molecular weight: 86
m/z	intensity
29	313
30	84
31	196
32	27
39	149
41	66
42	40
43	522
44	95
45	84
51	28
53	183
54	93
55	515
56	226
57	254
58	999
59	115
60	35
71	63
83	90
85	29
86	55
