Mass Spectrum: Pyrrolidine-5-one, 2-[3-hydroxypropyl]-
Formula: C7H13NO2
CAS: 80243-73-8
Molecular weight: 143
m/z	intensity
41	160
42	40
43	32
44	39
45	4
46	0
47	0
48	2
49	4
50	1
51	4
52	4
53	11
54	29
55	38
56	70
57	16
58	2
59	2
60	1
63	1
65	3
66	5
67	16
68	8
69	18
70	11
71	23
72	2
73	4
74	0
77	2
78	1
79	4
80	3
81	6
82	8
83	32
84	999
85	53
86	6
88	1
90	0
91	1
93	0
94	1
95	1
96	4
97	5
98	3
99	2
100	2
101	0
105	0
106	1
109	1
110	1
111	1
112	1
113	1
114	2
115	130
116	9
117	0
119	0
121	1
123	0
124	0
125	3
126	0
129	0
131	0
140	0
141	1
142	1
143	19
144	5
145	1
