Mass Spectrum: 2-methylamino-1-(3,4-methylenedioxyphenyl)-butan-1-one
Formula: C12H15NO3
CAS: 802575-11-7
Molecular weight: 221
m/z	intensity
15	4
18	1
26	2
27	10
28	33
29	15
30	40
31	1
32	4
37	2
38	4
39	24
40	3
41	40
42	61
43	10
44	47
45	1
50	5
51	9
52	3
53	10
54	6
55	6
56	39
57	89
58	4
60	1
61	4
62	20
63	60
64	9
65	73
66	6
67	1
68	3
69	2
70	35
71	11
72	999
73	48
74	4
75	2
76	2
77	6
78	2
79	4
80	1
88	1
89	2
90	2
91	22
92	5
93	2
94	1
95	4
102	1
103	2
104	1
105	1
106	1
115	1
116	1
117	1
118	1
119	5
120	6
121	58
122	7
123	1
131	1
132	1
133	1
134	3
135	6
136	1
145	1
146	1
147	2
148	1
149	60
150	6
151	1
160	1
161	1
162	8
163	1
164	3
175	1
176	1
177	1
190	1
191	1
192	6
193	1
