Mass Spectrum: 1-Propene, 2-nitro-3-(1-cyclooctenyl)
Formula: C11H17NO2
CAS: 80255-21-6
Molecular weight: 195
m/z	intensity
26	6
27	151
28	36
29	151
30	24
31	4
38	10
39	290
40	56
41	686
42	43
43	251
44	9
45	8
50	18
51	83
52	47
53	239
54	74
55	999
56	53
57	88
58	13
59	6
62	5
63	33
64	14
65	154
66	68
67	765
68	76
69	211
70	19
71	37
72	5
73	12
74	4
75	9
76	6
77	318
78	106
79	772
80	179
81	563
82	53
83	210
84	22
85	14
86	5
89	12
90	6
91	545
92	154
93	245
94	71
95	235
96	48
97	172
98	25
99	11
100	4
102	4
103	39
104	23
105	328
106	115
107	281
108	40
109	111
110	39
111	16
112	9
113	24
114	4
115	22
116	8
117	33
118	17
119	136
120	243
121	56
122	23
123	34
124	18
125	119
126	16
127	4
128	7
129	4
130	5
131	13
132	15
133	148
134	24
135	8
136	11
137	8
138	8
139	3
143	4
144	3
145	12
146	9
147	33
148	82
149	35
150	12
152	4
160	11
161	6
163	5
164	4
165	290
166	43
167	4
178	32
179	4
195	24
196	4
