Mass Spectrum: 9-Acridinamine, N-[4-(4-methyl-1-piperazinyl)phenyl]-
Formula: C24H24N4
CAS: 80259-18-3
Molecular weight: 368
m/z	intensity
34	3
36	26
37	14
38	49
39	118
40	142
41	81
42	424
43	999
44	131
45	13
50	106
51	96
52	42
53	12
54	11
55	56
56	95
57	104
58	63
59	0
60	0
61	15
62	35
63	98
64	49
65	38
66	5
67	6
68	6
70	501
71	422
72	26
73	31
74	46
75	49
76	64
77	102
78	76
79	6
81	2
82	62
83	215
85	12
86	9
87	22
88	21
89	33
90	16
91	18
92	35
93	3
95	0
97	44
98	60
99	15
100	4
101	9
102	14
103	1
104	3
105	1
106	2
107	2
111	3
112	13
113	40
114	22
115	30
116	8
117	2
118	2
119	10
120	20
121	12
125	5
126	4
127	6
128	8
129	1
130	2
131	1
132	1
134	105
135	37
137	7
138	18
139	145
140	125
141	21
142	0
145	2
148	24
149	5
150	10
151	32
152	23
153	2
163	7
164	23
165	14
166	169
167	356
168	43
169	0
171	15
176	3
177	16
178	17
179	17
180	2
184	93
189	0
191	6
192	3
193	7
194	36
195	795
196	113
197	3
204	1
205	2
240	1
241	5
242	2
255	2
266	13
267	42
268	85
269	45
270	7
271	2
281	4
282	8
283	73
284	16
294	0
295	8
296	79
297	93
298	53
299	6
310	1
311	2
312	2
324	7
325	2
353	3
368	212
369	53
370	2
