Mass Spectrum: 2-(1E,3Z-E)-(5-Bromo-4-methyl-1,3-pentadienyl)-2-methyl-1,3-dioxolane
Formula: C10H15BrO2
CAS: 80283-28-9
Molecular weight: 246
m/z	intensity
39	100
43	670
79	210
80	110
81	110
87	999
88	50
91	60
93	70
95	70
99	110
109	140
110	100
153	110
167	30
231	10
233	10
