Mass Spectrum: Dimethyl (E)-4,4-ethylenedioxy-2-pentenylphosphonate
Formula: C9H17O5P
CAS: 80283-22-3
Molecular weight: 236
m/z	intensity
43	150
68	100
73	100
79	220
80	120
82	110
87	999
93	130
94	130
96	150
109	330
127	100
149	100
177	70
189	70
193	60
221	430
222	60
