Mass Spectrum: 2-Methyl-2-[(1-E,3Z-E,5E)-4-methyl-6-(2,6,6-trimethyl-1-cyclohexenyl)-1,3,5-hexatrienyl]-1,3-dioxolane
Formula: C20H30O2
CAS: 80283-34-7
Molecular weight: 302
m/z	intensity
39	180
41	370
43	630
53	160
55	270
65	150
67	180
69	210
77	330
79	330
81	170
87	999
91	570
92	120
93	250
95	150
99	200
105	350
107	240
115	260
117	170
119	230
121	150
128	220
129	220
131	190
133	140
135	110
141	150
143	160
145	270
147	100
157	120
159	250
173	130
215	100
243	30
287	100
302	70
