Mass Spectrum: 2,2-Dimethyl-propyl S-benzene-thiosulfinate
Formula: C11H16OS2
CAS: 80319-00-2
Molecular weight: 228
m/z	intensity
45	198
47	98
50	100
51	393
53	149
55	162
57	999
69	279
71	200
77	450
78	413
87	129
97	238
103	322
109	91
110	100
124	149
125	528
126	551
180	620
228	19
229	9
