Mass Spectrum: Phenyl 2,2-dimethyl-propane-thiosulfonate
Formula: C11H16O2S2
CAS: 80319-01-3
Molecular weight: 244
m/z	intensity
51	70
55	221
65	331
69	109
70	89
71	951
109	391
110	999
111	90
244	159
245	20
246	20
