Mass Spectrum: S-Phenyl 2,2-dimethyl-propane-thiosulfinate
Formula: C11H16OS2
CAS: 80318-99-6
Molecular weight: 228
m/z	intensity
45	90
51	98
55	248
57	359
65	328
71	999
78	380
109	420
110	119
158	218
228	49
229	4
230	4
