Mass Spectrum: .alpha.-Benzyl malanohydroxamic acid hydrate
Formula: C10H12N2O4
CAS: 80324-47-6
Molecular weight: 224
m/z	intensity
41	10
42	8
43	24
44	64
45	13
46	2
50	25
51	72
52	19
53	9
54	1
55	24
56	4
59	3
60	10
61	9
62	8
63	29
64	8
65	88
66	6
69	7
74	29
75	9
76	11
77	107
78	54
79	36
80	2
87	2
88	2
89	22
90	6
91	999
92	71
93	5
94	1
101	2
102	21
103	77
104	38
105	85
106	12
107	8
116	7
117	13
118	6
119	3
120	10
121	2
122	2
128	11
129	1
130	5
131	102
132	4
133	36
134	5
139	1
146	14
147	15
148	27
149	9
150	5
159	121
160	12
162	3
163	3
164	46
165	18
166	3
177	1
191	10
192	14
193	3
194	2
209	11
210	2
224	9
225	2
