Mass Spectrum: Cyclobutane, 1,3-butadienyl-, (E)-
Formula: C8H12
CAS: 80344-48-5
Molecular weight: 108
m/z	intensity
27	281
28	8
29	20
30	0
32	0
36	0
37	9
38	23
39	323
40	27
41	144
42	4
43	0
45	0
48	0
49	4
50	44
51	80
52	76
53	61
54	24
55	6
60	0
61	3
62	7
63	20
64	3
65	66
66	14
67	41
68	3
73	1
74	5
75	6
76	3
77	186
78	49
79	986
80	999
81	44
82	1
86	0
87	0
89	1
90	0
91	29
92	3
93	32
94	2
103	0
105	1
107	1
108	31
109	2
