Mass Spectrum: Cyclobutane, 1-(1,3-butadienyl)-2-vinyl-
Formula: C10H14
CAS: 80344-52-1
Molecular weight: 134
m/z	intensity
27	464
29	22
30	0
34	0
36	0
37	11
38	36
39	631
40	50
41	291
42	7
45	0
48	0
49	5
50	91
51	259
52	211
53	211
54	66
55	8
56	2
57	0
58	1
60	0
61	5
62	16
63	51
64	11
65	251
66	34
67	48
68	4
73	0
74	13
75	16
76	10
77	544
78	312
79	999
80	981
81	217
82	3
83	0
85	0
86	1
87	1
88	0
89	8
90	2
91	368
92	79
93	29
94	2
98	0
101	0
102	4
103	22
104	7
105	60
106	36
107	3
115	9
116	2
117	8
118	1
119	34
120	3
127	0
128	1
129	0
131	0
133	2
134	8
135	0
