Mass Spectrum: Cyclobutane, 1,3-butadienyl-, (Z)-
Formula: C8H12
CAS: 80344-45-2
Molecular weight: 108
m/z	intensity
26	35
27	287
28	6
29	20
30	0
34	0
36	0
37	9
38	23
39	344
40	29
41	107
42	5
43	0
45	0
48	0
49	4
50	45
51	81
52	74
53	60
54	26
55	6
56	0
60	0
61	3
62	7
63	19
64	3
65	65
66	20
67	58
68	3
73	1
74	5
75	6
76	2
77	175
78	46
79	999
80	910
81	37
82	1
86	0
89	1
91	24
93	43
94	3
103	1
105	1
107	2
108	45
109	4
