Mass Spectrum: Methyl trans-4-octylcyclohexanecarboxylate
Formula: C16H30O2
CAS: 80361-87-1
Molecular weight: 254
m/z	intensity
39	58
40	219
41	297
42	49
43	356
53	61
54	100
55	462
56	69
57	188
59	128
67	328
68	70
69	218
70	160
71	98
75	119
79	100
80	69
81	999
82	218
83	208
87	427
95	221
96	119
97	138
100	40
101	108
109	270
110	70
111	79
123	59
124	149
139	40
141	69
156	109
169	40
222	39
254	259
255	49
