Mass Spectrum: 1-Allylcyclopropanecarboxylic acid
Formula: C7H10O2
CAS: 80360-57-2
Molecular weight: 126
m/z	intensity
26	41
27	325
28	26
29	108
30	4
31	43
37	20
38	53
39	455
40	82
41	659
42	86
43	181
44	17
45	172
46	7
47	5
49	10
50	78
51	139
52	87
53	428
54	182
55	222
56	67
57	71
58	19
59	11
60	6
61	8
62	17
63	32
64	7
65	125
66	73
67	283
68	63
69	111
70	42
71	27
72	6
73	11
74	12
75	9
76	5
77	133
78	35
79	545
80	227
81	999
82	119
83	489
84	49
85	23
86	6
91	13
92	4
93	50
94	5
95	20
96	7
97	114
98	83
99	16
105	13
106	5
107	13
108	92
109	31
110	4
111	394
112	28
113	3
125	42
126	436
127	36
128	5
