Mass Spectrum: 1-(2,4-Dichlorobenzoyl)-2-phenyl-4-piperidino-5-hydroxy-4,5-dihydroimidazole
Formula: C21H21Cl2N3O2
CAS: 80365-99-7
Molecular weight: 417
m/z	intensity
41	390
42	320
43	130
44	140
45	100
46	10
49	30
50	140
51	170
52	60
53	30
54	60
55	210
56	280
57	220
58	40
60	10
61	20
62	30
63	50
64	20
65	20
66	10
67	60
68	180
69	220
70	90
71	30
72	10
73	60
74	170
75	180
76	140
77	420
78	50
79	20
80	20
81	20
82	70
83	40
84	570
85	170
86	140
87	20
88	10
89	50
90	40
91	140
92	20
93	10
94	10
95	30
96	140
97	180
98	180
99	20
100	30
101	10
102	30
103	150
104	999
105	150
106	20
107	10
108	10
109	200
110	70
111	160
112	30
113	880
114	490
115	40
116	30
117	70
118	10
123	30
124	10
125	40
126	40
127	20
130	20
131	20
132	10
133	20
134	20
136	40
137	10
138	40
139	20
140	10
141	420
142	40
143	20
144	30
145	300
146	30
147	200
148	20
149	40
150	10
151	10
152	20
158	10
159	60
160	20
161	20
163	10
164	30
165	10
166	10
167	10
171	30
172	90
173	800
174	120
175	540
176	60
177	90
178	10
189	30
190	10
191	20
192	10
198	20
199	30
200	60
201	10
216	400
217	50
226	20
227	30
228	50
229	20
242	60
243	20
244	310
245	50
257	20
261	10
263	10
269	10
270	20
271	10
288	10
290	10
291	20
292	20
293	10
294	10
297	70
298	20
299	30
303	40
304	30
305	40
306	20
307	10
365	30
367	10
382	180
383	40
384	70
385	20
417	10
419	10
