Mass Spectrum: 6,7,8,9-Tetrahydro-2-(4-hydroxyanilino)-3-methylbenzo[4,5]thieno[3,2-e]pyrimidin-1(2H)-one
Formula: C17H17N3O2S
CAS: 80381-80-2
Molecular weight: 327
m/z	intensity
36	19
37	55
39	490
40	184
41	294
42	566
43	127
44	96
45	217
47	45
50	185
52	999
53	636
54	81
55	63
58	161
59	49
60	23
61	35
63	183
64	131
65	170
66	60
67	45
68	36
69	76
70	57
71	71
72	12
73	11
75	60
77	190
78	90
79	226
80	142
81	315
82	58
83	28
84	31
85	24
86	11
87	14
88	31
89	50
91	205
92	36
93	64
94	54
95	36
96	55
97	25
98	8
100	10
102	28
104	38
107	441
108	209
109	70
110	32
111	16
114	8
116	66
117	27
118	21
119	10
120	19
121	43
122	57
123	64
124	23
125	5
132	9
133	22
134	33
135	40
136	29
137	9
138	11
144	9
146	19
147	8
148	19
149	21
150	42
151	71
152	10
159	6
160	9
161	16
162	23
164	60
174	8
176	35
177	25
178	21
179	39
187	8
189	6
192	667
193	44
194	17
203	13
205	120
206	15
217	33
220	634
221	56
222	19
327	43
328	7
329	1
