Mass Spectrum: (3-Chloropropionamido)sulfur pentafluoride
Formula: C3H5ClF5NOS
CAS: 80409-44-5
Molecular weight: 233
m/z	intensity
26	156
27	999
36	63
42	104
43	83
44	130
47	135
49	68
55	182
63	656
65	219
70	52
85	125
87	42
89	172
91	750
93	250
101	57
102	47
103	31
104	16
127	195
129	19
150	33
170	33
198	47
233	17
235	6
