Mass Spectrum: Acrylamidosulfur pentafluoride
Formula: C3H4F5NOS
CAS: 80409-43-4
Molecular weight: 197
m/z	intensity
19	500
26	116
27	652
43	125
44	49
55	999
56	43
70	29
89	101
91	6
104	20
121	9
127	177
129	9
170	6
197	22
