Mass Spectrum: Acetamidosulfur pentafluoride
Formula: C2H4F5NOS
CAS: 80409-42-3
Molecular weight: 185
m/z	intensity
42	53
43	999
47	19
70	25
89	133
91	6
103	11
104	78
105	8
127	500
129	24
150	14
170	39
185	67
