Mass Spectrum: (Tetrafluorosuccinimido)sulfur pentafluoride
Formula: C4F9NO2S
CAS: 80409-49-0
Molecular weight: 297
m/z	intensity
69	35
70	121
78	12
81	37
89	33
92	18
100	999
101	32
109	75
119	73
127	193
129	11
147	9
150	56
175	6
222	12
250	6
269	6
297	3
