Mass Spectrum: Chloromethyl 3-chlorobutanoate
Formula: C5H8Cl2O2
CAS: 80418-48-0
Molecular weight: 170
m/z	intensity
36	19
39	208
41	760
42	318
43	228
49	442
51	150
55	40
56	19
57	130
62	10
63	140
65	50
68	10
69	238
70	100
71	40
72	20
76	101
77	490
78	40
79	169
85	250
91	39
93	169
104	278
105	999
106	180
107	339
134	49
135	487
137	169
