Mass Spectrum: Chloromethyl 8-chloroundecanoate
Formula: C12H22Cl2O2
CAS: 80418-94-6
Molecular weight: 268
m/z	intensity
36	150
39	138
41	602
42	170
43	259
49	50
53	69
54	129
55	999
56	169
57	139
67	250
68	250
69	509
70	120
71	70
72	229
73	30
79	79
81	198
82	241
83	371
84	318
85	99
93	39
95	130
96	230
97	190
98	331
108	309
109	100
110	50
111	90
119	50
121	69
122	69
123	109
124	178
125	59
137	69
148	40
149	100
166	69
167	129
203	19
