Mass Spectrum: Chloromethyl 4-chlorobutanoate
Formula: C5H8Cl2O2
CAS: 80418-49-1
Molecular weight: 170
m/z	intensity
36	149
38	59
39	71
41	306
42	110
43	50
49	222
51	68
55	91
69	29
70	10
71	10
72	278
76	9
77	190
79	70
85	10
91	9
104	19
105	799
106	49
107	270
108	999
110	339
