Mass Spectrum: 5-(Furan-3-yl)-2-methylpent-1-en-3-one
Formula: C10H12O2
CAS: 80445-58-5
Molecular weight: 164
m/z	intensity
27	27
37	5
38	22
39	208
40	42
41	495
42	28
50	17
51	47
52	15
53	115
55	32
62	8
63	20
64	7
65	117
66	47
67	214
68	46
69	406
70	26
77	27
78	10
81	425
82	20
91	34
94	124
95	999
96	88
103	15
107	17
108	44
115	10
117	23
118	7
121	62
122	26
131	17
135	66
136	31
145	10
146	20
147	8
149	25
163	7
164	249
165	26
