Mass Spectrum: 1,3,5-Triazine, hexahydro-1,3,5-tris(2,2,6,6-tetramethyl-4-piperidinyl)-
Formula: C30H60N6
CAS: 80458-17-9
Molecular weight: 504
m/z	intensity
36	3
39	121
40	19
41	428
42	369
43	83
44	52
45	7
50	5
51	10
52	12
53	50
54	74
55	239
56	201
57	55
58	999
59	30
60	4
65	19
66	12
67	55
68	43
69	129
70	178
71	49
72	13
73	6
76	7
77	13
79	37
80	22
81	45
82	79
83	65
84	126
85	24
91	15
92	5
93	15
94	31
95	7
96	191
97	15
98	241
99	31
100	3
104	4
105	9
107	86
108	36
109	15
110	151
111	41
112	89
113	51
114	4
121	6
122	15
124	887
125	77
126	9
127	3
135	5
136	4
137	5
138	26
140	135
141	20
149	40
150	7
151	8
153	833
154	75
155	14
167	39
168	14
169	117
170	29
171	3
181	33
182	14
183	9
184	5
196	13
198	23
223	5
278	9
279	6
321	4
323	8
336	5
348	1
364	69
365	15
366	2
503	1
504	2
