Mass Spectrum: 2-(4-Acetylphenyl)-1,3-dioxolane
Formula: C11H12O3
CAS: 80463-23-6
Molecular weight: 192
m/z	intensity
37	16
38	48
39	178
40	12
41	20
42	43
43	734
44	32
45	421
46	8
49	9
50	223
51	309
52	47
53	22
55	6
61	16
62	76
63	201
64	24
65	90
66	42
73	627
74	86
75	68
76	149
77	414
78	80
79	31
86	11
87	16
88	15
89	208
90	64
91	212
92	22
102	9
103	54
104	166
105	999
106	79
107	15
118	15
119	152
120	77
121	13
131	22
133	164
134	76
135	14
146	14
147	501
148	122
149	443
150	37
161	4
162	10
165	6
177	45
178	4
191	374
192	98
193	18
