Mass Spectrum: Heptanoic acid, 4,6-dioxo-, methyl ester
Formula: C8H12O4
CAS: 80480-42-8
Molecular weight: 172
m/z	intensity
31	65
37	0
38	7
39	56
40	25
41	77
42	114
43	999
44	28
45	34
49	0
50	5
51	4
52	14
53	14
54	5
55	320
56	73
57	56
58	11
59	141
60	6
61	4
63	1
64	0
65	2
66	0
67	12
68	9
69	109
70	28
71	16
72	3
73	2
74	2
79	3
81	6
82	6
83	7
84	11
85	335
86	20
87	64
88	33
89	0
95	9
97	32
98	49
99	138
100	8
110	0
111	15
112	17
113	34
114	4
115	93
116	0
125	44
126	5
130	31
131	2
139	0
140	66
141	22
157	2
172	18
