Mass Spectrum: Methyl-2,4-di-O-methyl-3-O-(2,3,4-tri-O-methyl.alpha.l-rhamnopyranosyl).alpha.l-rhamnopyranoside
Formula: C18H34O9
CAS: 80504-79-6
Molecular weight: 394
m/z	intensity
59	34
72	145
75	85
85	6
88	999
97	20
99	64
101	125
113	22
117	14
125	10
129	76
131	12
145	368
157	48
174	9
188	10
189	169
203	9
205	19
249	195
262	26
