Mass Spectrum: 2,3,4-Tri-O-methyl.alpha.l-rhamnopyranosyl-2,3,4-tri-O-methyl.alpha.l-rhamnopyranoside
Formula: C18H34O9
CAS: 80504-77-4
Molecular weight: 394
m/z	intensity
59	33
72	23
75	73
85	8
88	28
97	9
99	75
101	999
113	16
115	11
117	26
125	17
128	47
129	22
131	13
143	5
145	38
157	51
161	19
170	6
173	5
174	9
176	7
188	15
189	259
201	16
219	11
233	23
245	17
249	6
277	21
291	16
321	2
362	8
