Mass Spectrum: Methyl-2,3-di-O-methyl-4-O-[(2,3-di-O-methyl.alpha.l-rhamnopyranosyl)-4-O-(2,3,4-tri-O-methyl.alpha.l-rhamnopyranosyl)].alpha.l-rhamnopyranoside
Formula: C26H48O13
CAS: 80504-81-0
Molecular weight: 568
m/z	intensity
59	5
72	15
75	104
85	5
88	999
99	13
101	44
115	8
117	9
124	42
125	45
129	16
145	60
157	97
188	19
189	416
203	12
205	11
249	438
259	25
262	22
275	9
319	134
323	170
331	20
363	214
436	9
537	3
538	2
