Mass Spectrum: Methyl-3,4-di-O-methyl-2-O-(2,3,4-tri-O-methyl.alpha.l-rhamnopyranosyl).alpha.l-rhamnopyranoside
Formula: C18H34O9
CAS: 80504-78-5
Molecular weight: 394
m/z	intensity
59	16
72	116
75	92
85	13
88	999
97	9
99	32
101	110
113	10
117	5
118	6
125	6
129	31
131	10
145	23
157	35
189	284
203	9
249	389
259	6
262	35
275	33
331	8
349	5
