Mass Spectrum: 3-Cyclopentene-1-ethanol, 2,2,4-trimethyl-
Formula: C10H18O
CAS: 80514-13-2
Molecular weight: 154
m/z	intensity
41	350
42	20
43	180
44	10
51	40
52	20
53	130
54	10
55	220
56	10
57	30
63	10
65	80
66	20
67	260
68	40
69	180
70	10
77	210
78	30
79	270
80	40
81	180
82	10
83	40
85	10
91	280
92	40
93	480
94	70
95	999
96	90
97	10
103	10
105	270
106	80
107	80
108	70
109	390
110	50
111	40
119	50
121	500
122	50
123	20
136	80
137	10
139	900
140	100
154	220
155	10
