Mass Spectrum: tert-Butylstibinous acid thioanhydride
Formula: C16H36SSb2
CAS: 80536-71-6
Molecular weight: 502
m/z	intensity
57	999
90	50
153	50
155	37
178	30
180	22
210	50
212	37
234	50
268	60
270	45
291	232
293	86
299	20
300	100
301	29
302	145
303	10
304	54
333	50
335	72
337	27
389	160
391	230
393	85
445	70
447	101
449	37
502	10
504	14
506	5
