Mass Spectrum: tert-Butylstibinous acid anhydride
Formula: C16H36OSb2
CAS: 80536-70-5
Molecular weight: 486
m/z	intensity
57	999
121	90
123	67
177	280
178	120
180	90
242	190
244	275
246	102
261	150
263	217
265	81
299	360
300	200
301	522
302	290
303	194
304	108
317	420
319	609
321	226
356	150
358	217
360	81
373	130
375	188
377	70
429	30
430	220
431	43
432	319
433	16
434	118
486	100
488	145
490	54
