Mass Spectrum: Methyl 2-methyl-2-(methoxy-thiocyanato)amino-propanoate
Formula: C7H12N2O3S
CAS: 80552-74-5
Molecular weight: 204
m/z	intensity
29	97
30	89
41	164
42	165
43	74
44	82
45	80
54	81
55	105
56	999
57	88
58	48
59	373
60	40
69	115
70	40
72	82
73	342
74	41
87	585
88	402
100	40
101	147
114	81
115	41
145	652
146	80
147	73
204	81
