Mass Spectrum: 2-Methyl-1,3-oxathiolane-2-acetic acid methyl ester
Formula: C7H12O3S
CAS: 80563-95-7
Molecular weight: 176
m/z	intensity
15	30
27	6
41	7
43	433
45	78
59	205
60	999
61	78
62	37
85	53
101	23
103	276
117	276
176	77
