Mass Spectrum: Methyl 3-hydroxypiperidine-1-carboxylate
Formula: C7H13NO3
CAS: 80613-04-3
Molecular weight: 159
m/z	intensity
39	104
40	40
41	228
42	457
43	371
44	330
45	35
53	24
54	39
55	159
56	124
57	60
58	226
59	258
67	19
68	16
69	28
70	60
71	156
72	21
74	12
80	9
81	5
82	110
83	20
84	24
85	6
86	24
88	137
89	8
90	12
96	6
98	10
100	163
102	999
103	65
115	93
116	12
126	50
128	26
130	11
131	9
140	11
141	53
142	6
144	17
145	4
158	17
159	145
160	7
