Mass Spectrum: 1,E-11,Z-13-Heptadecatriene
Formula: C17H30
CAS: 80625-35-0
Molecular weight: 234
m/z	intensity
40	21
41	565
42	104
43	116
51	16
52	11
53	99
54	294
55	425
56	114
57	80
65	61
66	42
67	999
68	194
69	97
70	9
71	40
72	7
77	90
78	33
79	327
80	209
81	548
82	356
83	111
84	4
85	11
91	54
92	23
93	135
94	92
95	372
96	460
97	111
98	4
106	9
107	85
108	95
109	213
110	92
111	16
117	4
119	7
120	7
121	97
122	64
123	57
124	40
134	20
135	80
136	31
137	31
138	29
139	4
140	4
148	10
149	47
150	14
151	12
152	17
153	2
154	2
155	2
156	2
162	14
163	28
164	20
165	14
166	6
175	2
176	9
177	19
178	4
180	2
190	7
191	11
192	8
205	9
219	2
233	9
234	163
235	55
236	7
