Mass Spectrum: 1,E-8,Z-10-Pentadecatriene
Formula: C15H26
CAS: 80625-32-7
Molecular weight: 206
m/z	intensity
40	23
41	641
42	34
43	118
44	11
50	5
51	26
52	22
53	109
54	230
55	329
56	17
57	67
58	4
63	4
65	80
66	59
67	999
68	224
69	92
70	5
71	44
72	5
77	125
78	70
79	373
80	253
81	613
82	202
83	47
84	4
85	7
90	4
91	76
92	22
93	161
94	73
95	223
96	230
97	43
103	7
105	10
106	5
107	82
108	43
109	77
110	104
111	11
115	2
117	2
119	5
120	8
121	88
122	44
123	46
124	17
125	5
126	2
127	2
129	1
132	1
133	2
134	46
135	113
136	28
137	6
138	3
145	1
146	1
148	41
149	94
150	28
151	7
152	13
162	8
163	21
164	8
176	1
177	10
178	2
191	4
193	1
204	1
205	45
206	124
207	22
208	2
