Mass Spectrum: 6-Methyloctahydrocoumarin
Formula: C10H16O2
CAS: 80648-29-9
Molecular weight: 168
m/z	intensity
36	9
39	272
40	54
41	465
42	103
43	264
44	34
49	4
51	23
52	13
53	114
54	130
55	660
56	129
57	184
58	15
59	26
65	23
66	25
67	400
68	248
69	171
70	111
71	21
73	3
77	26
78	2
79	42
80	113
81	999
82	352
83	484
84	127
85	113
87	3
88	6
89	6
91	4
93	113
94	84
95	432
96	460
97	158
98	40
107	25
108	48
109	105
110	1
111	189
112	101
113	2
122	3
124	64
125	13
139	27
167	9
168	29
