Mass Spectrum: N-(Methylsulfonyl)-O-methylhydroxylamine
Formula: C2H7NO3S
CAS: 80653-53-8
Molecular weight: 125
m/z	intensity
29	710
30	630
46	999
47	900
63	230
79	720
95	70
110	110
125	150
