Mass Spectrum: N-(Methylsulfonyl)-N,O-dimethylhydroxylamine
Formula: C3H9NO3S
CAS: 80653-54-9
Molecular weight: 139
m/z	intensity
29	330
30	300
31	260
32	290
33	620
42	80
45	260
48	90
60	999
65	80
79	460
94	20
124	10
139	140
