Mass Spectrum: 1,2-Cyclopentanedicarboxylic acid, dimethyl ester, trans-(.+/-.)-
Formula: C9H14O4
CAS: 80656-12-8
Molecular weight: 186
m/z	intensity
14	1
15	74
16	1
26	5
27	45
28	15
29	24
30	3
31	10
33	5
34	1
37	2
38	9
39	115
40	36
41	177
42	25
43	28
44	3
45	42
46	1
47	2
48	6
49	4
50	3
51	9
52	4
53	41
54	9
55	164
56	9
57	9
58	3
59	263
60	8
61	8
62	3
63	8
64	4
65	52
66	181
67	999
68	180
69	71
70	6
71	14
72	2
73	19
74	46
75	4
76	1
77	6
78	1
79	10
80	2
81	11
82	6
83	31
84	5
85	16
86	2
87	56
88	5
91	4
92	2
93	24
94	49
95	516
96	44
97	28
98	32
99	19
100	125
101	13
102	2
103	1
104	1
105	4
106	1
107	1
109	3
110	2
111	60
112	13
113	331
114	29
115	62
116	4
117	1
118	1
119	2
120	2
121	3
122	21
123	4
124	16
125	36
126	853
127	244
128	44
129	7
131	1
135	1
139	4
140	3
141	10
142	1
145	51
146	4
147	1
149	4
151	1
152	30
153	25
154	329
155	408
156	45
157	30
158	4
159	1
184	2
186	7
187	1
