Mass Spectrum: N,O-Bis(methylsulfonyl)-N-methylhydroxylamine
Formula: C3H9NO5S2
CAS: 80653-57-2
Molecular weight: 203
m/z	intensity
29	100
30	430
31	90
42	70
45	400
46	240
48	150
60	210
63	850
64	170
65	190
79	999
80	100
81	260
94	60
95	60
97	210
111	130
124	660
143	110
157	60
158	130
173	10
