Mass Spectrum: N,N-Bis(methylsulfonyl)-O-methylhydroxylamine
Formula: C3H9NO5S2
CAS: 80653-56-1
Molecular weight: 203
m/z	intensity
29	290
30	850
45	210
48	180
63	590
64	160
65	150
79	999
80	170
81	190
92	270
94	310
95	340
110	250
111	620
124	120
125	250
126	320
143	60
158	40
188	160
203	30
