Mass Spectrum: 8,9-Dimethylene-4-oxatricyclo[5.2.1.0(2,6)]decane
Formula: C11H14O
CAS: 80707-63-7
Molecular weight: 162
m/z	intensity
24	0
25	2
26	16
27	114
28	23
29	54
30	4
31	8
32	3
37	2
38	12
39	176
40	26
41	147
42	13
43	36
44	4
45	5
48	0
49	1
50	28
51	89
52	40
53	59
54	8
55	21
56	3
57	8
58	4
59	0
61	1
62	8
63	37
64	31
65	127
66	22
67	15
68	4
69	618
70	36
71	19
72	1
73	1
74	4
75	6
76	5
77	121
78	65
79	131
80	30
81	16
82	5
83	8
84	5
85	2
86	1
87	2
88	1
89	17
90	14
91	999
92	584
93	129
94	105
95	15
96	3
97	2
98	0
99	3
100	0
101	1
102	7
103	34
104	65
105	78
106	27
107	8
108	3
109	4
110	1
111	1
113	2
114	1
115	81
116	44
117	154
118	48
119	45
120	13
121	15
122	2
123	1
124	3
125	1
126	0
127	7
128	17
129	46
130	9
131	73
132	15
133	39
134	11
135	3
136	1
137	1
139	0
141	1
142	0
143	6
144	4
145	2
146	0
147	12
148	1
149	1
150	0
151	0
157	0
159	0
160	0
161	4
162	411
163	52
164	4
165	0
