Mass Spectrum: Isopentyl 3-hydroxy-2-methylenebutanoate
Formula: C10H18O3
CAS: 80758-72-1
Molecular weight: 186
m/z	intensity
18	5
26	11
27	84
28	85
29	81
30	3
31	12
32	29
37	2
38	7
39	110
40	23
41	233
42	70
43	838
44	36
45	119
46	2
47	2
50	7
51	19
52	11
53	118
54	91
55	482
56	72
57	45
58	5
59	5
60	5
61	8
62	2
63	6
64	2
65	9
66	7
67	44
68	14
69	112
70	287
71	999
72	82
73	88
74	6
75	2
76	2
77	20
78	6
79	24
80	6
81	187
82	78
83	166
84	24
85	16
86	5
87	11
88	1
89	3
90	2
91	20
92	4
93	11
94	6
95	6
96	5
97	113
98	241
99	339
100	38
101	262
102	10
103	6
104	2
105	10
106	2
107	12
108	6
109	4
110	3
111	7
112	3
113	5
114	3
115	49
116	78
117	29
118	3
119	4
121	8
122	2
123	5
125	3
126	6
128	2
129	5
130	1
131	3
132	1
133	2
134	1
135	7
136	11
139	2
143	31
144	3
150	3
153	4
157	2
171	81
172	8
