Mass Spectrum: Tricyclo[4.2.1.1(2,5)]deca-3,7-dien-9-one, 10-butyl-10-hydroxy-, stereoisomer
Formula: C14H18O2
CAS: 80758-63-0
Molecular weight: 218
m/z	intensity
26	14
27	126
28	187
29	117
31	7
38	8
39	138
40	17
41	161
42	16
43	72
44	5
50	35
51	93
52	59
53	88
54	16
55	193
56	15
57	530
58	29
62	10
63	56
64	22
65	99
66	36
67	57
68	13
69	25
70	21
71	14
74	8
75	15
76	19
77	290
78	194
79	170
80	40
81	135
82	122
83	44
84	7
85	494
86	32
87	7
89	28
90	14
91	397
92	122
93	27
94	28
95	282
96	50
97	12
98	6
101	8
102	30
103	130
104	90
105	999
106	151
107	66
108	25
109	19
110	5
111	6
113	5
114	7
115	212
116	77
117	77
118	48
119	122
120	207
121	38
122	13
123	11
124	15
127	62
128	147
129	281
130	151
131	121
132	101
133	615
134	386
135	48
136	15
137	123
138	65
139	9
141	30
142	21
143	136
144	45
145	38
146	14
147	106
148	89
149	35
150	5
152	7
153	13
155	6
157	115
158	54
159	21
160	11
161	302
162	79
163	19
171	78
172	49
173	15
174	9
175	144
176	51
177	8
185	17
186	4
187	5
189	81
190	202
191	37
199	7
200	122
201	32
202	7
203	4
216	5
217	13
218	166
219	28
