Mass Spectrum: 2-Hydroxy-2-methyl-but-3-enyl 2-methyl-2(Z)-butenoate
Formula: C10H16O3
CAS: 80758-67-4
Molecular weight: 184
m/z	intensity
26	6
27	78
28	20
29	103
30	3
31	12
37	2
38	6
39	123
40	17
41	73
42	20
43	233
44	9
45	12
49	1
50	10
51	20
52	11
53	90
54	76
55	742
56	42
57	9
59	5
68	10
69	38
70	11
71	529
72	26
73	2
74	2
82	152
83	999
84	254
85	18
86	11
97	1
98	6
99	68
101	3
110	2
111	57
112	5
113	7
114	73
115	7
116	1
120	1
121	9
123	1
125	1
133	1
136	19
137	2
139	8
140	1
153	3
154	1
157	2
166	6
167	1
169	3
