Mass Spectrum: Pentacarbonyltris(trimethylsilyl)stibinemolybdenum
Formula: C14H27MoO5SbSi3
CAS: 80753-46-4
Molecular weight: 578
m/z	intensity
73	999
147	700
252	50
330	150
340	200
345	150
350	200
365	300
393	350
421	300
494	250
503	30
522	300
550	150
563	10
578	300
