Mass Spectrum: 2-Phenyl-5,6-dihydro-1,3,5-thiadiazine-4,6-dione
Formula: C9H6N2O2S
CAS: 80784-80-1
Molecular weight: 206
m/z	intensity
42	168
43	776
45	255
46	31
47	29
49	38
50	721
51	915
52	183
53	31
54	39
55	1
56	5
57	5
58	111
60	275
61	52
62	75
63	143
64	66
65	16
66	2
67	12
69	158
70	107
71	15
73	30
74	100
75	136
76	403
77	521
78	32
80	2
81	26
82	35
83	9
84	20
86	266
88	38
90	21
91	50
93	36
94	13
95	9
96	2
97	1
99	14
100	5
102	11
103	999
104	422
105	37
107	13
108	43
109	9
110	2
111	0
117	4
118	0
119	9
121	489
122	39
123	26
124	2
129	1
130	186
131	14
133	0
134	23
135	98
136	8
137	11
138	0
139	0
142	0
145	1
146	10
147	2
148	3
149	0
162	1
163	407
164	32
165	17
166	1
167	0
177	1
178	1
180	7
181	0
188	3
189	16
190	2
195	1
197	0
206	180
207	21
208	9
209	0
