Mass Spectrum: Aziridine, 1,-(1-butenyl)-, (Z)-
Formula: C6H11N
CAS: 80839-94-7
Molecular weight: 97
m/z	intensity
25	6
26	101
27	358
28	477
29	165
30	37
31	0
33	0
34	1
36	0
37	21
38	55
39	322
40	90
41	999
42	715
43	168
44	21
45	0
46	3
47	4
49	3
50	27
51	37
52	35
53	101
54	155
55	377
56	65
57	18
58	3
61	1
62	2
63	3
64	8
65	21
66	11
67	155
68	259
69	242
70	36
71	13
72	2
75	1
77	5
78	2
79	7
80	60
81	42
82	575
83	34
84	8
85	8
90	1
92	0
93	1
94	19
95	3
96	70
97	669
98	45
99	3
