Mass Spectrum: Aziridine, 1-(2-methyl-1-propenyl)-
Formula: C6H11N
CAS: 80839-93-6
Molecular weight: 97
m/z	intensity
26	71
27	314
28	388
29	237
30	59
37	21
38	52
39	376
40	93
41	871
42	621
43	128
44	22
48	14
49	6
50	22
51	41
52	47
53	135
54	134
55	756
56	80
57	14
64	6
65	18
66	16
67	115
68	150
69	237
70	30
77	6
78	4
79	18
80	69
81	155
82	582
83	36
84	8
94	45
95	21
96	634
97	999
98	72
