Mass Spectrum: Methyl 3-O-acetyl-2-acetamido-2-deoxy-4,6-di-O-methyl-.alpha.-D-glucopyranoside
Formula: C13H23NO7
CAS: 80831-96-5
Molecular weight: 305
m/z	intensity
54	8
55	9
56	36
57	15
58	48
59	239
60	44
61	8
69	20
70	31
71	449
72	80
73	92
74	81
75	57
80	73
81	9
82	11
83	88
84	57
85	19
86	119
87	31
88	11
89	25
95	17
96	31
97	18
98	179
99	51
100	19
101	999
102	159
103	10
108	9
109	6
110	14
111	73
112	92
113	17
114	73
115	38
116	31
117	5
122	14
126	28
127	24
128	349
129	73
130	60
138	6
139	9
140	41
141	5
142	19
143	299
144	60
145	8
153	21
154	30
155	19
156	9
158	8
168	6
169	53
170	19
171	28
172	46
173	4
182	6
185	25
186	20
187	3
188	1
200	4
213	2
214	81
215	3
246	62
247	8
260	4
274	6
306	0
