Mass Spectrum: Aziridine, 1-(1-butenyl)-, (E)-
Formula: C6H11N
CAS: 80839-92-5
Molecular weight: 97
m/z	intensity
25	5
26	141
27	476
28	659
29	224
30	59
31	1
33	0
36	0
37	26
38	59
39	375
40	114
41	999
42	816
43	179
44	27
45	0
46	4
47	4
49	5
50	29
51	48
52	45
53	115
54	162
55	401
56	59
57	13
58	2
60	0
61	1
62	1
63	3
64	7
65	27
66	12
67	180
68	285
69	246
70	39
71	3
72	0
75	1
76	1
77	4
78	2
79	10
80	70
81	49
82	600
83	35
84	3
85	1
93	1
94	20
95	3
96	79
97	566
98	44
99	1
