Mass Spectrum: 4-(2-Benzoylhydrazono)-2-dimethylamino-6,7-dihydrooxazolo[3,2-a][1,3,5]triazine
Formula: C14H16N6O2
CAS: 80862-58-4
Molecular weight: 300
m/z	intensity
77	399
88	219
104	149
105	999
121	239
137	59
138	159
139	139
151	69
152	139
166	89
167	169
180	119
181	179
186	109
285	79
300	399
301	139
