Mass Spectrum: 3-Methyl-2-nitrobenzyl alcohol
Formula: C8H9NO3
CAS: 80866-76-8
Molecular weight: 167
m/z	intensity
14	3
15	6
16	2
18	2
26	10
27	82
28	69
29	54
30	46
31	49
32	8
36	1
37	15
38	44
39	267
40	37
41	122
42	11
43	163
44	9
45	8
46	8
47	9
48	1
49	8
50	79
51	211
52	88
53	117
54	20
55	29
56	4
57	4
58	1
59	5
60	7
61	22
62	57
63	175
64	70
65	539
66	159
67	47
68	13
69	16
70	4
71	1
72	1
73	5
74	29
75	35
76	53
77	652
78	315
79	103
80	15
81	39
82	8
83	3
84	2
85	6
86	12
87	12
88	5
89	117
90	68
91	999
92	200
93	384
94	120
95	14
96	3
97	2
98	3
99	2
100	1
101	6
102	36
103	207
104	768
105	165
106	51
107	51
108	11
109	21
110	2
111	1
116	2
117	4
118	36
119	155
120	52
121	53
122	23
123	7
124	3
130	24
131	60
132	113
133	21
134	22
135	25
136	3
137	1
138	2
146	3
147	1
148	48
149	221
150	27
151	5
152	3
160	1
164	2
166	4
167	3
