Mass Spectrum: 3,6,9,12,15,19-Hexaoxa-18-azabicyclo(15,2,1)eicosa-1(20),17-diene-2,16-dione
Formula: C13H17NO8
CAS: 80887-16-7
Molecular weight: 315
m/z	intensity
43	701
44	286
45	969
58	174
59	111
67	595
68	610
73	575
86	143
95	132
101	82
111	999
112	99
123	100
125	100
128	9
139	325
140	249
141	49
142	18
153	174
154	57
155	39
156	18
166	24
167	400
168	75
169	49
170	12
171	12
182	25
183	25
184	237
185	24
186	4
197	33
198	13
199	4
211	7
213	25
226	25
227	15
228	311
229	37
241	49
242	10
259	17
272	112
273	8
316	62
