Mass Spectrum: Benzeneethanamine, N-[3,5-dibenzyloxyphenylacetyl]-3-methoxy-
Formula: C31H31NO4
CAS: 80907-81-9
Molecular weight: 481
m/z	intensity
41	8
42	2
43	7
44	2
45	3
49	0
50	2
51	9
52	3
53	2
54	1
55	9
56	2
57	6
58	0
60	1
61	0
62	1
63	8
64	3
65	70
66	5
67	3
68	1
69	6
70	2
71	3
72	0
73	1
74	0
75	0
76	1
77	18
78	13
79	10
80	1
81	2
82	1
83	3
84	1
85	2
86	0
87	0
89	13
90	4
91	999
92	98
93	5
94	2
95	4
96	1
97	2
98	0
99	0
102	1
103	12
104	2
105	22
106	9
107	4
108	3
109	2
110	0
111	1
112	0
115	3
116	1
117	3
118	3
119	4
120	7
121	22
122	6
123	5
124	6
125	0
127	1
128	2
129	3
130	0
131	6
132	2
133	2
134	116
135	60
136	8
137	2
138	1
139	0
141	4
142	1
143	3
144	0
145	1
146	1
147	3
148	1
149	6
150	14
151	5
152	12
153	4
154	1
155	2
156	0
157	1
158	0
159	0
160	1
161	2
162	30
163	4
164	1
165	5
166	6
167	5
168	2
169	1
170	0
171	2
173	0
176	0
177	0
178	10
179	10
180	45
181	85
182	13
183	4
184	1
185	2
186	0
187	0
190	1
191	0
192	1
193	4
194	2
195	2
196	1
197	5
198	1
199	2
200	0
208	0
209	34
210	7
211	28
212	13
213	15
214	7
215	1
221	0
222	1
223	30
224	186
225	36
226	4
227	0
228	1
236	0
237	0
238	2
239	8
240	14
241	8
242	3
243	0
252	0
253	1
254	1
255	1
256	29
257	10
258	4
259	0
260	0
261	0
268	4
269	1
270	2
271	0
275	0
280	0
281	1
282	1
283	0
284	0
285	0
287	0
288	0
289	7
290	1
298	1
299	2
300	1
301	3
302	7
303	9
304	4
305	0
312	0
313	0
314	11
315	2
316	0
329	0
330	5
331	10
332	2
333	0
345	0
346	1
347	29
348	7
349	1
360	3
361	0
362	0
372	4
373	1
388	0
390	33
391	12
392	2
480	0
481	234
482	80
483	15
484	2
