Mass Spectrum: Pentaethylphosphoric triamide
Formula: C10H26N3OP
CAS: 80920-38-3
Molecular weight: 235
m/z	intensity
41	13
42	145
43	29
44	184
46	46
47	13
54	27
56	147
57	19
58	343
64	112
65	27
66	3
70	108
71	128
72	999
73	199
74	130
75	123
76	67
77	25
79	234
80	9
87	53
88	17
89	108
90	30
91	52
92	66
93	25
106	19
107	92
108	12
118	44
119	97
120	46
121	56
122	8
135	113
136	31
137	8
163	918
164	71
165	34
191	26
207	13
220	42
221	1
235	108
236	5
