Mass Spectrum: 1H-Benzocycloheptene, 2,4a,5,6,7,8,9,9a-octahydro-3,5,5-trimethyl-9-methylene-
Formula: C15H24
CAS: 80923-88-2
Molecular weight: 204
m/z	intensity
26	11
27	294
29	200
30	1
37	5
38	11
39	361
41	923
42	51
43	253
50	19
51	90
52	46
53	280
54	34
55	451
56	80
57	59
58	11
62	5
63	39
64	15
65	150
66	38
67	403
68	85
69	603
70	43
71	13
73	3
74	4
75	4
76	6
77	376
78	89
79	635
80	154
81	295
82	112
83	50
84	7
85	6
86	3
87	3
89	11
90	5
91	533
92	343
93	999
94	863
95	310
96	65
97	25
102	10
103	50
104	22
105	526
106	171
107	444
108	165
109	367
110	42
111	22
112	3
115	53
116	21
117	72
118	29
119	650
120	189
121	389
122	112
123	25
124	3
127	7
128	24
129	20
130	9
131	35
132	16
133	257
134	333
135	257
136	84
137	10
141	6
142	3
143	9
145	20
146	8
147	128
148	87
149	34
150	3
157	4
159	7
160	9
161	320
162	76
163	18
175	64
176	26
177	5
178	7
189	366
190	58
191	5
204	342
205	49
