Mass Spectrum: 2-Benzyloxyphenylethylamine
Formula: C15H17NO
CAS: 80938-36-9
Molecular weight: 227
m/z	intensity
41	12
42	3
43	3
44	2
50	19
51	32
52	15
53	6
55	3
62	4
63	19
64	7
65	95
66	7
74	5
75	6
76	25
77	33
78	18
79	7
80	3
81	2
89	20
90	14
91	999
92	79
93	3
104	74
105	15
106	9
107	92
108	8
120	4
128	2
132	14
133	3
134	5
197	7
198	246
199	38
200	3
225	1
227	4
228	1
