Mass Spectrum: Butanenitrile, 2-(4-methylphenylhydrazono)-3-oxo-
Formula: C11H11N3O
CAS: 80955-62-0
Molecular weight: 201
m/z	intensity
33	22
34	1
36	0
37	3
39	81
40	34
41	22
43	536
44	14
45	0
50	24
51	56
52	48
53	33
54	13
55	2
56	0
61	1
62	7
63	24
65	98
66	12
67	2
68	0
74	2
75	4
77	162
78	56
79	100
80	7
81	0
82	1
87	0
88	2
89	16
91	999
92	68
101	1
102	2
103	7
104	29
105	55
106	188
107	40
108	2
110	0
115	0
116	1
118	3
119	122
120	8
124	0
128	0
129	0
130	19
131	12
132	23
133	3
134	0
139	0
143	0
144	1
149	1
155	0
156	7
157	3
158	22
159	2
183	0
184	0
186	0
196	0
199	6
201	560
202	69
203	3
