Mass Spectrum: 4-Ethyl-4-methyl-5-methylene-[1,3]dioxolan-2-one
Formula: C7H10O3
CAS: 80956-52-1
Molecular weight: 142
m/z	intensity
39	83
40	18
41	177
42	112
43	154
44	19
45	3
51	12
52	3
53	38
54	23
55	279
56	999
57	49
67	4
69	27
70	103
71	5
73	22
79	10
81	2
83	68
85	6
91	4
97	20
98	43
113	16
119	1
142	15
