Mass Spectrum: Methyl 2-hydroxy-4-methyl-4-nitroso-pentanoate, TMS derivative
Formula: C10H21NO4Si
CAS: 80998-48-7
Molecular weight: 247
m/z	intensity
56	50
57	29
58	970
59	80
73	999
74	180
146	19
247	10
