Mass Spectrum: S-Chloro-S-fluoro-N-pentafluorosulfanylsulfilimine
Formula: ClF6NS2
CAS: 80997-19-9
Molecular weight: 227
m/z	intensity
32	38
35	50
36	53
37	16
38	19
46	999
48	74
51	83
53	4
64	48
65	172
67	38
70	172
72	9
81	11
84	8
85	18
86	33
89	519
91	28
100	34
102	13
105	158
107	64
108	39
124	12
127	835
129	43
135	3
143	18
145	3
173	4
192	293
194	30
208	14
210	6
