Mass Spectrum: Dicyclopentadiene diepoxide
Formula: C10H12O2
CAS: 81-21-0
Molecular weight: 164
m/z	intensity
45	7
46	0
47	0
50	68
51	183
52	81
53	290
54	164
55	176
56	12
57	98
58	24
59	0
60	0
61	2
62	15
63	54
64	12
65	163
66	235
67	179
68	149
69	60
70	24
71	16
72	0
73	2
74	6
75	5
76	0
77	331
78	118
79	541
80	90
81	999
82	595
83	101
84	7
85	2
86	11
87	1
88	0
89	11
90	9
91	391
92	142
93	74
94	49
95	61
96	25
97	8
98	3
99	4
101	0
102	4
103	53
104	18
105	104
106	15
107	175
108	106
109	10
110	2
111	0
114	0
115	48
116	25
117	160
118	40
119	38
120	44
121	35
122	4
123	12
124	0
127	0
128	2
129	2
130	0
131	18
132	4
133	59
134	7
135	39
136	7
137	0
163	3
164	18
165	1
