Mass Spectrum: Bicyclo[3.2.0]heptan-6-one, 2-acetyl-3,3-dimethyl-7-(1-methylethyl)-
Formula: C14H22O2
CAS: 81052-68-8
Molecular weight: 222
m/z	intensity
27	34
28	3
29	28
31	0
38	1
39	37
40	6
41	112
42	7
43	356
44	10
45	5
47	2
50	2
51	11
52	5
53	37
54	5
55	149
56	16
57	26
58	3
59	5
63	3
64	1
65	16
66	5
67	73
68	11
69	218
70	12
71	30
72	2
73	8
74	1
75	20
76	3
77	38
78	8
79	46
80	16
81	66
82	17
83	40
84	88
85	44
86	3
89	1
91	28
92	4
93	37
94	38
95	999
96	127
97	49
98	12
99	80
100	7
101	1
103	3
104	2
105	13
106	2
107	26
108	13
109	61
110	8
111	48
112	9
113	2
115	4
116	1
117	15
118	2
119	8
120	6
121	20
122	6
123	50
124	23
125	42
126	46
127	6
128	2
129	2
130	1
131	2
132	1
133	3
134	1
135	11
136	4
137	22
138	316
139	190
140	21
141	4
142	1
143	0
145	2
146	1
147	5
148	1
149	25
150	4
151	68
152	11
153	6
154	5
155	1
161	26
162	4
163	4
164	2
165	13
166	15
167	9
168	3
169	2
170	1
171	1
175	0
176	1
177	2
178	3
179	70
180	15
181	6
182	2
183	1
184	1
185	1
186	1
189	5
190	1
191	1
192	1
193	1
194	56
195	13
196	3
197	1
202	1
203	0
204	3
205	3
206	1
207	21
208	3
222	38
223	4
224	1
