Mass Spectrum: 2,5-Pyrrolidinedione, 1-penta-3,4-dienyl-
Formula: C9H11NO2
CAS: 81068-32-8
Molecular weight: 165
m/z	intensity
38	109
39	453
40	242
41	955
42	397
43	255
44	848
45	47
50	49
51	111
52	102
53	224
54	200
55	999
56	656
57	88
65	111
66	597
67	167
68	222
69	329
70	134
71	59
72	122
80	98
81	242
82	261
83	118
84	334
85	87
97	109
98	48
99	397
100	918
101	44
112	93
113	64
122	64
124	46
136	59
137	107
165	133
