Mass Spectrum: 2,5-Pyrrolidinedione, 1-[2-(1-pyrrolydinylcarbonyl)ethyl]-
Formula: C11H16N2O3
CAS: 81068-33-9
Molecular weight: 224
m/z	intensity
40	48
41	114
42	112
43	203
44	336
45	20
53	32
54	41
55	590
56	265
57	26
67	37
68	46
69	60
70	999
71	136
72	28
80	24
82	41
83	17
84	47
85	20
95	14
96	20
97	56
98	96
99	151
100	35
112	249
113	56
124	18
125	30
126	87
154	195
155	22
224	112
