Mass Spectrum: N-(3-Oxopent-4-enyl)-succinimide
Formula: C9H11NO3
CAS: 81068-31-7
Molecular weight: 181
m/z	intensity
39	20
40	18
41	50
42	41
43	39
44	84
53	17
54	37
55	999
56	180
57	28
69	19
70	31
81	18
82	359
83	45
84	64
97	24
98	53
99	75
100	54
112	54
124	13
125	18
126	88
127	18
153	50
154	33
181	40
182	14
