Mass Spectrum: Zinc, bis(3,3-dimethyl-4-pentenyl)-
Formula: C14H26Zn
CAS: 81069-81-0
Molecular weight: 258
m/z	intensity
27	74
28	24
29	40
30	0
37	1
38	3
39	68
40	15
41	400
42	25
43	45
44	1
49	0
50	3
51	8
52	5
53	50
54	18
55	62
56	7
57	4
61	0
62	0
63	1
64	10
65	7
66	6
67	43
68	21
69	999
70	86
71	38
72	2
77	4
78	1
79	7
80	1
81	23
82	11
83	11
84	0
89	0
91	4
92	2
93	3
94	1
95	9
96	4
97	11
98	1
105	0
106	0
107	0
108	0
109	1
110	1
111	0
112	0
114	0
119	0
121	0
123	4
124	0
131	0
132	3
133	99
134	13
135	68
136	16
137	45
138	6
139	5
140	0
148	0
150	0
159	0
160	1
161	128
162	11
163	75
164	16
165	52
166	4
167	2
168	0
174	1
176	1
177	0
178	1
179	0
180	0
189	11
190	1
191	7
192	1
193	4
194	0
195	0
201	0
202	43
203	5
204	32
205	7
206	21
207	3
208	4
209	0
215	0
217	1
219	0
221	0
230	19
231	2
232	12
233	3
234	7
235	1
236	0
258	1
260	0
262	0
