Mass Spectrum: Benzofuran, 2,3-dihydro-2-[(methylthio)methyl]-5-nitro-
Formula: C10H11NO3S
CAS: 81077-74-9
Molecular weight: 225
m/z	intensity
61	730
89	200
91	120
103	210
105	50
117	110
118	999
130	120
131	400
132	370
147	190
150	20
163	100
164	290
176	370
177	520
178	220
195	40
225	790
226	90
227	40
