Mass Spectrum: Acetaldehyde, chlorodifluoro-
Formula: C2HClF2O
CAS: 811-96-1
Molecular weight: 114
m/z	intensity
28	106
29	999
30	12
31	145
32	24
35	49
36	26
37	14
38	7
43	4
44	31
47	20
48	4
49	6
50	123
51	413
63	6
64	4
66	60
67	114
68	19
69	36
78	16
79	394
85	66
86	17
87	20
88	4
94	3
95	6
114	93
116	29
