Mass Spectrum: 1-Ethyl-2-undecylimidazole
Formula: C16H30N2
CAS: 81186-24-5
Molecular weight: 250
m/z	intensity
15	2
26	2
27	17
28	23
29	28
30	3
39	11
40	7
41	59
42	24
43	37
44	2
51	1
52	2
53	9
54	31
55	26
56	5
57	10
65	1
66	2
67	6
68	9
69	19
70	2
71	2
77	1
78	1
79	2
80	3
81	120
82	999
83	67
84	5
85	1
93	6
94	7
95	518
96	190
97	12
98	1
106	3
107	10
108	9
109	97
110	17
111	2
119	2
120	1
121	16
122	9
123	59
124	32
125	3
133	1
135	5
136	1
137	229
138	31
139	2
149	2
151	111
152	18
153	1
163	1
165	45
166	9
177	1
179	74
180	12
181	1
191	1
193	79
194	14
195	1
207	16
208	2
220	1
221	52
222	157
223	28
224	2
249	2
250	5
251	1
