Mass Spectrum: Methanesulfinyl fluoride, trifluoro-
Formula: CF4OS
CAS: 812-12-4
Molecular weight: 136
m/z	intensity
31	80
32	60
48	380
50	100
51	110
67	450
69	999
82	20
101	6
117	10
136	0
