Mass Spectrum: Phosphonothioamidodifluoridate, N,N-dimethyl-
Formula: C2H6F2NPS
CAS: 812-13-5
Molecular weight: 145
m/z	intensity
15	60
41	9
42	826
43	207
44	20
45	9
69	128
94	10
96	9
101	49
102	9
110	9
111	9
112	999
113	20
126	19
128	9
130	9
144	39
145	600
146	9
147	9
