Mass Spectrum: 1-Silacyclohexa-2,5-diene
Formula: C5H8Si
CAS: 81200-77-3
Molecular weight: 96
m/z	intensity
43	203
53	240
55	279
66	188
67	360
68	339
69	240
70	159
81	160
93	259
95	526
96	999
