Mass Spectrum: 2-Ethoxy-5-isopropylidene-2,3,3-trimethyltetrahydrofuran
Formula: C12H22O2
CAS: 81250-50-2
Molecular weight: 198
m/z	intensity
26	10
27	93
29	155
30	10
31	23
39	120
40	39
41	485
42	176
43	865
44	49
45	30
47	15
50	10
51	27
52	13
53	78
54	23
55	191
56	80
57	205
58	30
59	52
61	39
63	11
65	42
66	19
67	549
68	137
69	257
70	387
71	209
72	23
73	14
76	10
77	58
78	34
79	55
80	16
81	138
82	80
83	151
84	39
85	284
86	564
87	45
88	14
89	36
91	50
92	11
93	46
94	22
95	999
96	101
97	49
98	13
99	89
100	26
102	36
103	10
104	12
105	22
106	10
107	29
108	12
109	220
110	252
111	120
112	21
113	170
114	239
115	29
116	57
117	10
119	16
121	23
122	17
123	54
124	16
125	16
127	157
128	32
129	13
133	11
135	25
136	10
137	339
138	47
139	26
141	10
151	28
152	157
153	754
154	105
155	55
156	11
163	9
165	11
169	21
170	14
183	34
184	9
197	9
198	631
199	98
200	10
