Mass Spectrum: o,N-Diparatoluenesulfonyl[2-aminophenol]
Formula: C20H19NO5S2
CAS: 81256-20-4
Molecular weight: 417
m/z	intensity
41	49
42	2
43	1
45	12
47	0
48	0
50	26
51	117
52	226
53	45
54	4
55	2
58	0
59	0
61	1
62	9
63	66
64	20
65	349
66	19
67	12
69	3
70	0
71	2
74	2
75	3
76	4
77	35
78	68
79	129
80	35
81	2
82	0
83	0
84	0
85	1
86	1
87	2
89	84
90	16
91	999
92	45
93	5
95	2
96	0
97	0
102	1
103	1
104	0
105	1
106	27
107	13
108	34
109	4
110	1
111	7
112	0
113	0
115	6
116	1
117	1
119	0
120	0
121	2
122	1
123	2
126	0
127	4
128	9
129	3
130	2
131	0
138	0
139	56
140	6
141	6
142	2
143	2
144	1
146	2
148	0
151	0
152	2
153	1
155	706
156	68
157	45
158	3
159	0
165	5
166	2
167	4
168	6
169	3
170	9
171	3
172	4
173	0
178	0
179	0
180	5
181	4
182	4
183	33
184	4
185	0
186	1
195	0
196	6
197	9
198	35
199	5
214	0
245	27
246	4
247	1
260	0
262	691
263	131
264	52
265	6
266	0
294	0
301	0
303	0
314	0
325	0
327	2
341	0
351	0
352	0
353	6
354	1
400	25
401	6
402	3
403	0
417	182
418	53
419	24
420	5
421	1
