Mass Spectrum: Furan, 2-(1-methylethoxy)-5-(1-methylethylidene)-2,3,3-trimethyl-tetrahydro-
Formula: C13H24O2
CAS: 81250-49-9
Molecular weight: 212
m/z	intensity
26	3
27	42
28	10
29	37
30	2
31	4
38	3
39	52
40	18
41	195
42	75
43	474
44	19
45	12
50	2
51	7
52	4
53	33
54	7
55	69
56	23
57	91
58	15
59	18
60	2
61	15
62	2
63	3
65	14
66	7
67	198
68	39
69	78
70	152
71	157
72	19
73	3
77	19
78	4
79	20
80	6
81	47
82	17
83	65
84	14
85	193
86	999
87	94
88	10
91	15
92	4
93	16
94	9
95	258
96	34
97	14
98	4
99	41
100	9
101	2
103	3
104	2
105	4
106	2
107	10
108	5
109	153
110	60
111	46
112	13
113	23
114	7
115	3
117	2
119	4
120	2
121	5
122	4
123	24
124	7
125	7
126	8
127	134
128	42
129	6
133	2
134	2
135	8
136	5
137	165
138	27
139	7
140	2
141	9
142	3
149	11
150	2
151	6
152	25
153	544
154	107
155	29
156	4
168	2
169	18
170	290
171	54
172	7
212	275
213	56
214	8
