Mass Spectrum: 9,9-Bis[4-acetamidophenylsulfonyl]fluorene
Formula: C29H24N2O6S2
CAS: 81269-15-0
Molecular weight: 560
m/z	intensity
41	49
42	130
43	999
44	47
45	521
47	45
48	57
49	20
50	77
51	11
52	25
53	20
54	8
60	300
61	27
62	42
63	129
64	86
65	59
66	32
67	7
69	15
70	12
73	8
74	67
75	90
76	183
77	32
78	11
79	2
80	60
81	14
82	2
83	4
84	11
85	11
86	9
87	30
88	16
90	25
91	15
92	26
93	131
94	9
95	2
96	11
97	20
98	31
99	24
100	12
101	10
102	18
108	45
109	8
110	7
111	7
113	7
122	10
123	13
124	297
125	92
126	72
127	12
134	7
135	26
139	8
140	59
141	9
149	9
150	90
151	142
152	256
153	35
156	7
157	13
163	8
164	7
165	79
166	42
167	30
168	2
173	4
180	516
181	76
182	16
183	7
199	10
216	9
258	2
300	7
332	28
333	2
335	2
377	4
