Mass Spectrum: Bis[benzylsulfonyl]-4-carboxyl phenyl methane
Formula: C22H20O6S2
CAS: 81269-11-6
Molecular weight: 444
m/z	intensity
41	17
42	1
43	3
44	1
45	5
47	3
48	6
49	16
50	6
51	25
52	7
53	2
55	0
61	1
62	7
63	30
64	16
65	139
66	6
69	1
71	4
75	1
76	2
77	12
78	4
79	2
84	8
86	6
88	2
89	30
91	999
92	53
93	1
103	6
105	8
107	3
109	1
115	0
118	0
121	1
127	0
133	3
135	3
137	2
139	1
141	0
142	0
149	1
152	1
153	1
155	0
165	5
166	6
167	0
178	8
179	21
180	1
181	26
182	1
183	0
207	11
208	2
215	1
222	1
224	38
225	168
226	22
227	2
273	0
316	1
