Mass Spectrum: Bis[phenylsulfonyl]-4-trichloromethylphenyl chloromethane
Formula: C20H14Cl4O4S2
CAS: 81269-12-7
Molecular weight: 522
m/z	intensity
41	6
43	9
45	14
47	2
48	2
49	8
50	32
51	178
52	5
53	29
57	1
61	1
62	6
63	11
64	3
65	11
66	0
69	6
70	3
71	43
72	0
73	9
74	12
75	13
77	347
78	23
79	1
81	18
82	0
84	5
85	5
86	4
87	6
88	1
89	1
94	1
95	0
97	152
98	12
99	26
100	3
105	2
107	1
108	2
109	19
110	0
111	4
115	0
121	2
123	38
125	999
126	60
127	44
128	1
133	9
134	6
135	14
136	3
137	4
139	5
141	37
142	2
143	2
149	3
150	2
151	2
152	2
157	3
158	16
159	1
160	13
162	3
163	1
165	4
167	0
169	6
170	37
171	2
172	26
173	2
174	4
175	2
176	10
177	3
186	12
187	1
188	9
189	0
190	0
193	38
195	40
196	1
197	15
199	4
201	1
203	0
204	0
205	6
206	0
207	7
208	1
209	1
210	0
212	7
214	3
221	46
223	50
224	1
225	16
227	1
240	1
242	3
244	1
246	4
248	3
266	13
267	1
268	0
282	2
284	2
299	2
301	2
327	3
329	3
346	9
347	1
348	11
349	2
350	3
381	0
383	0
384	0
385	0
386	0
387	2
487	8
489	8
491	2
