Mass Spectrum: Bis[4-acetamidophenylsulfonyl]phenyl methane
Formula: C23H22N2O6S2
CAS: 81269-03-6
Molecular weight: 486
m/z	intensity
41	16
42	31
43	274
44	2
45	124
48	6
49	28
50	241
51	452
52	120
53	28
55	8
57	11
60	78
61	17
62	19
63	31
64	18
65	15
66	2
69	14
70	5
71	6
73	22
74	71
75	43
76	58
77	999
78	138
79	11
80	25
81	7
85	5
91	16
92	6
93	14
95	10
96	6
97	9
105	875
106	846
107	69
108	13
122	10
124	173
125	51
126	12
134	2
140	14
141	5
145	23
155	10
157	9
166	32
167	25
168	2
173	44
182	16
183	29
184	2
185	23
198	4
212	7
216	3
258	2
300	8
328	15
330	14
332	38
333	6
334	2
335	3
364	6
486	2
