Mass Spectrum: 4-Aminophenyl-.alpha.-chlorobenzyl sulfone
Formula: C13H12ClNO2S
CAS: 81269-18-3
Molecular weight: 281
m/z	intensity
41	21
42	11
43	2
44	4
45	4
47	2
48	2
49	6
50	12
51	26
52	20
53	10
54	9
55	1
57	0
58	1
61	3
62	21
63	86
64	36
65	188
66	23
67	0
68	3
69	3
70	1
71	1
73	15
75	15
77	16
78	5
79	1
80	15
81	1
82	0
84	6
85	3
86	5
87	3
89	143
90	43
92	136
93	9
95	1
96	2
97	3
99	39
101	14
102	1
104	1
105	7
106	0
108	73
109	5
110	0
112	5
114	0
115	4
116	0
117	1
121	2
123	14
125	999
127	501
128	27
129	12
130	1
137	1
140	109
141	10
142	6
143	1
151	2
152	9
153	6
154	3
156	132
157	11
158	3
163	3
165	36
166	7
167	9
168	1
175	16
177	7
178	1
180	34
181	10
182	94
183	12
216	3
217	52
219	24
220	2
246	9
247	2
281	49
282	15
283	16
284	0
