Mass Spectrum: Bis[benzylsulfonyl]-4-trichloromethylphenyl methane
Formula: C22H19Cl3O4S2
CAS: 81269-10-5
Molecular weight: 516
m/z	intensity
41	12
42	13
43	4
44	0
45	4
47	0
48	3
49	3
50	4
51	12
52	3
53	0
55	1
57	0
59	0
61	0
62	3
63	16
64	10
65	91
66	4
69	1
71	5
72	3
73	2
74	2
75	5
77	4
78	1
79	0
84	1
85	1
86	1
87	1
89	23
91	999
92	46
93	1
96	0
97	0
99	6
100	1
101	3
102	0
103	0
104	0
105	1
107	1
109	1
111	0
115	1
117	0
121	2
122	0
123	7
125	7
126	0
127	1
129	0
131	0
133	1
135	5
136	11
137	2
138	4
139	1
141	0
147	0
149	1
151	0
152	1
153	0
155	3
157	0
158	1
159	8
161	6
163	1
165	3
166	1
167	0
168	1
170	0
171	2
172	1
173	1
174	0
175	0
176	0
178	8
179	24
180	31
181	30
182	2
183	0
185	1
186	2
187	16
188	1
189	15
190	2
191	6
192	3
202	1
204	1
205	0
206	0
207	1
208	1
212	1
213	1
214	0
219	2
221	2
223	1
225	7
226	3
227	8
228	1
229	3
235	3
237	2
238	0
239	5
241	1
243	1
245	1
247	0
249	1
251	1
255	0
259	1
260	1
261	30
262	13
263	18
264	8
265	4
266	1
271	2
272	0
275	1
276	1
277	1
278	0
279	0
283	0
296	32
297	153
298	45
299	125
300	27
301	48
302	7
303	6
304	0
317	2
318	0
319	1
324	13
325	3
326	8
327	5
328	2
329	3
330	0
331	0
337	0
339	0
345	1
347	1
349	0
353	5
354	1
355	3
356	0
357	0
373	1
375	1
388	1
390	1
417	8
418	1
419	6
420	1
421	1
427	0
429	0
481	10
482	4
483	6
484	0
485	1
516	9
517	2
518	9
519	1
520	2
521	0
