Mass Spectrum: Dimethylallyl(n-octyl)silane
Formula: C13H28Si
CAS: 81272-81-3
Molecular weight: 212
m/z	intensity
39	43
40	27
41	73
42	24
43	137
44	35
45	67
46	6
55	37
56	12
57	24
58	37
59	999
60	73
61	43
67	20
69	37
70	12
71	46
72	24
73	143
74	20
75	37
83	18
84	9
85	67
87	98
88	12
95	6
97	13
98	6
99	130
100	20
101	43
111	24
112	6
113	25
115	18
127	13
129	9
170	6
171	253
172	42
173	11
174	1
197	4
198	1
