Mass Spectrum: 2,5-Di-t-butyl-3a-(1-hydroxyethyl)-7a-methyldihydro[1,3]dioxolo[4,5-d][1,3]dioxin-7-one
Formula: C16H28O6
CAS: 81286-84-2
Molecular weight: 316
m/z	intensity
25	1
26	7
27	69
28	31
29	178
30	6
31	9
36	1
37	3
38	5
39	60
40	11
41	308
42	47
43	439
44	43
45	133
46	4
47	3
48	1
49	1
50	4
51	5
52	2
53	19
54	9
55	112
56	25
57	397
58	21
59	6
61	4
63	3
65	6
66	2
67	8
68	6
69	459
70	515
71	162
72	31
73	26
74	14
75	28
76	2
77	2
78	2
79	2
80	0
81	8
82	8
83	25
84	11
85	43
86	56
87	999
88	70
89	7
90	9
91	16
92	2
93	1
94	1
95	2
96	2
97	4
98	2
99	126
100	65
101	57
102	10
103	6
104	1
105	2
107	1
108	1
109	13
110	10
111	9
112	2
113	10
114	32
115	13
116	4
117	33
118	2
119	2
121	1
123	1
124	1
125	4
126	1
127	65
128	21
129	28
130	3
131	9
132	2
133	1
139	1
141	5
142	3
143	9
144	3
145	455
146	35
147	6
148	0
149	6
150	1
151	1
152	1
153	2
155	3
156	1
157	7
158	361
159	137
160	15
161	3
163	2
165	1
166	1
167	1
168	3
169	35
170	5
171	6
173	131
174	12
175	3
183	1
184	0
185	25
186	6
187	22
189	3
190	1
191	40
193	3
194	1
195	0
196	1
197	1
198	2
199	0
200	1
201	0
202	3
203	1
204	1
213	18
214	3
215	17
216	2
218	1
219	1
220	0
222	2
230	2
231	41
232	2
233	6
234	2
259	214
260	32
261	5
262	3
263	1
299	9
300	3
301	1
315	5
316	2
317	1
