Mass Spectrum: Trifluoromethyltrimethylsilane
Formula: C4H9F3Si
CAS: 81290-20-2
Molecular weight: 142
m/z	intensity
26	1
27	15
28	6
29	13
30	0
31	3
39	0
41	4
42	11
43	44
44	9
45	176
46	9
47	73
48	4
49	51
50	3
51	0
53	8
54	1
55	7
56	1
57	5
58	5
59	1
61	4
62	7
63	33
64	1
65	0
66	0
67	0
69	7
70	0
71	1
72	4
73	999
74	75
75	30
76	4
77	556
78	37
79	16
81	46
82	1
83	0
85	1
91	0
123	1
