Mass Spectrum: Pentanoic acid, 2,2-dimethyl-, methyl ester
Formula: C8H16O2
CAS: 813-68-3
Molecular weight: 144
m/z	intensity
26	26
27	26
28	44
29	177
30	17
31	20
38	17
39	166
40	36
41	337
42	66
43	999
44	42
45	23
51	34
53	55
55	20
56	25
57	142
59	250
67	20
69	137
70	55
73	88
74	17
83	30
84	87
85	738
86	62
87	101
101	47
102	447
103	38
113	27
115	62
