Mass Spectrum: Propanenitrile, 2,2,3-trichloro-
Formula: C3H2Cl3N
CAS: 813-74-1
Molecular weight: 157
m/z	intensity
12	5
13	1
14	4
24	9
25	30
26	84
27	14
28	80
29	2
35	46
36	40
37	23
38	27
39	4
40	2
41	1
43	1
44	23
47	48
48	14
49	999
50	43
51	662
52	207
53	21
54	80
55	3
59	7
60	59
61	78
62	94
63	24
64	22
70	2
71	1
72	2
73	15
74	2
75	5
76	1
80	1
82	8
83	5
84	4
85	22
86	335
87	116
88	115
89	56
90	3
91	7
94	4
95	70
96	213
97	49
98	134
99	9
100	20
108	110
109	4
110	68
111	2
112	10
117	1
119	1
120	11
121	17
122	976
123	46
124	621
125	24
126	101
127	3
129	1
130	1
131	2
132	1
133	1
