Mass Spectrum: Methyl 2-[methoxy(methyl)amino]-2-methylpropanoate  #
Formula: C7H15NO3
CAS: 81308-37-4
Molecular weight: 161
m/z	intensity
56	430
59	42
70	116
71	225
102	999
103	83
114	7
115	7
116	7
130	8
146	17
161	42
