Mass Spectrum: 2-(1-Methyl-1-dimethoxyamino)ethyl-propan-1,3-diol
Formula: C8H19NO4
CAS: 81308-30-7
Molecular weight: 193
m/z	intensity
29	32
30	62
31	54
41	105
42	60
43	178
44	27
45	71
46	5
47	49
54	28
55	60
56	139
57	104
58	49
59	27
60	32
61	33
62	49
67	49
68	61
69	999
70	89
76	28
77	56
81	149
87	81
88	176
99	167
117	49
118	11
130	11
144	22
145	38
146	11
162	61
193	233
