Mass Spectrum: Methoxy-(1,1-dimethyl-2-hydroxy-ethyl)-amine
Formula: C5H13NO2
CAS: 81308-34-1
Molecular weight: 119
m/z	intensity
29	156
30	156
31	207
32	85
33	68
41	156
42	569
43	154
44	92
45	232
46	47
47	311
48	47
55	169
56	649
57	116
58	92
86	70
88	999
89	85
102	61
119	16
