Mass Spectrum: 2-(2-Cyclohex-1-enyl-ethyl)-isoindole-1,3-dione
Formula: C16H17NO2
CAS: 81304-93-0
Molecular weight: 255
m/z	intensity
34	0
37	0
38	5
39	74
40	37
41	119
42	10
43	9
44	9
45	0
50	50
51	51
52	17
53	49
54	21
55	46
56	13
57	4
61	0
62	1
63	7
64	5
65	34
66	21
67	60
68	5
69	3
70	2
71	1
73	1
74	14
75	31
76	112
77	236
78	89
79	367
80	73
81	21
82	3
83	1
84	1
88	0
89	6
90	6
91	52
92	16
93	240
94	37
95	48
96	4
98	1
100	0
101	2
102	27
103	17
104	102
105	80
106	20
107	68
108	999
109	90
110	4
111	0
112	1
113	0
114	0
115	3
116	2
117	19
118	3
119	2
120	2
121	0
122	1
126	0
127	1
128	2
130	137
131	13
132	28
133	77
134	8
135	0
141	0
142	0
144	0
145	1
146	6
148	405
149	76
150	6
151	0
154	0
157	0
158	6
160	482
161	150
162	18
163	1
168	0
170	0
171	1
172	0
173	6
174	13
175	3
176	1
177	0
182	0
183	0
184	2
185	0
186	1
188	1
196	1
198	4
199	3
200	0
208	0
210	0
212	4
213	0
226	2
227	4
228	1
237	0
246	1
251	0
253	2
254	8
255	176
256	31
257	4
