Mass Spectrum: 1-(Piperidin-2-ylmethyl)piperidine
Formula: C11H22N2
CAS: 81310-55-6
Molecular weight: 182
m/z	intensity
39	15
40	4
41	82
42	71
43	20
44	31
45	1
52	1
53	8
54	15
55	63
56	80
57	18
58	10
65	3
66	1
67	15
68	20
69	29
70	45
71	9
77	1
79	2
80	6
81	5
82	19
83	24
84	695
85	39
86	3
93	1
94	3
95	2
96	25
97	45
98	999
99	225
100	41
101	2
110	2
112	1
122	1
123	1
124	3
125	1
151	1
179	1
181	1
182	2
