Mass Spectrum: Propanoic acid, 2-(methoxymethoxy)-
Formula: C5H10O4
CAS: 81327-29-9
Molecular weight: 134
m/z	intensity
25	1
26	13
27	50
28	5
29	83
30	9
31	79
33	16
34	1
37	0
38	0
39	2
40	1
41	4
42	6
43	53
44	20
45	999
46	33
47	6
49	0
50	1
51	2
53	2
54	1
55	58
56	15
57	3
58	47
59	48
60	6
61	24
62	1
63	1
64	0
65	1
67	1
68	0
69	1
70	0
71	2
72	2
73	65
74	49
75	36
76	2
77	2
78	0
79	1
80	0
81	0
82	0
83	1
84	0
85	0
86	1
87	1
88	2
89	250
90	15
91	4
92	1
94	0
97	1
101	1
102	1
103	23
104	2
105	2
106	0
107	0
108	0
109	1
110	0
111	0
114	0
115	1
117	1
132	0
133	3
134	0
135	1
