Mass Spectrum: 2H-1-Benzopyran-2-one, 3,4,4a,5,6,7-hexahydro-4a-methyl-
Formula: C10H14O2
CAS: 81379-97-7
Molecular weight: 166
m/z	intensity
26	21
27	329
28	95
29	114
30	4
31	7
38	15
39	259
40	56
41	396
42	55
43	891
44	48
45	32
50	15
51	37
52	19
53	105
54	38
55	746
56	63
57	33
58	6
62	5
63	11
64	4
65	32
66	17
67	187
68	82
69	170
70	20
71	13
72	15
73	5
74	5
77	76
78	16
79	52
80	17
81	105
82	52
83	57
84	15
85	7
87	10
91	51
92	10
93	135
94	34
95	78
96	108
97	42
98	13
99	6
105	11
107	12
108	23
109	182
110	367
111	999
112	69
113	6
121	6
122	7
123	43
124	15
125	16
126	21
127	8
136	6
137	14
138	133
139	15
151	34
152	3
166	267
167	25
