Mass Spectrum: 3-Cyclopenten-1-one, 2,2,5,5-tetramethyl-
Formula: C9H14O
CAS: 81396-36-3
Molecular weight: 138
m/z	intensity
38	13
39	244
40	44
41	288
42	33
43	43
45	8
50	21
51	65
52	34
53	138
54	36
55	168
56	33
63	15
65	46
66	17
67	315
68	88
69	34
70	6
77	90
78	22
79	87
80	23
81	90
82	74
83	8
91	45
93	51
94	15
95	999
96	71
109	13
110	667
111	56
123	6
138	87
139	9
