Mass Spectrum: 2-Pyridinemethanol, .alpha.-4-pentenyl-
Formula: C11H15NO
CAS: 81418-00-0
Molecular weight: 177
m/z	intensity
26	9
27	72
28	24
29	32
30	2
31	6
37	2
38	7
39	89
40	11
41	76
42	10
43	13
44	4
45	2
49	2
50	19
51	75
52	103
53	133
54	17
55	21
56	3
57	8
62	2
63	7
64	4
65	15
66	10
67	14
68	7
69	5
70	2
71	2
73	1
74	1
75	2
76	5
77	17
78	247
79	180
80	156
81	31
82	3
83	2
84	2
85	1
86	2
89	5
90	5
91	17
92	11
93	83
94	16
95	5
96	2
97	2
98	1
99	1
102	1
103	2
104	31
105	31
106	196
107	46
108	999
109	541
110	58
111	4
115	2
116	5
117	68
118	110
119	28
120	30
121	13
122	126
123	18
124	2
125	1
126	1
127	1
128	1
129	1
130	28
131	19
132	49
133	60
134	63
135	18
136	27
137	3
138	1
141	1
142	3
143	6
144	15
145	3
146	6
147	4
148	28
149	18
150	2
151	1
152	1
153	1
154	1
156	3
157	2
158	18
159	22
160	80
161	8
162	4
175	1
176	25
177	27
178	3
