Mass Spectrum: 4-Methylthiophene-3-sulfonamide
Formula: C5H7NO2S2
CAS: 81417-56-3
Molecular weight: 177
m/z	intensity
16	2
17	2
26	3
27	30
28	14
29	2
30	3
32	4
33	1
34	3
37	5
38	12
39	47
40	3
41	9
42	2
43	3
44	7
45	225
46	30
47	24
48	10
49	5
50	20
51	43
52	20
53	168
54	9
55	1
56	3
57	13
58	12
59	8
60	3
61	6
62	5
63	24
64	32
65	6
66	3
67	5
68	41
69	68
70	88
71	36
72	9
73	7
74	1
76	7
77	9
78	2
79	2
80	35
81	11
82	19
83	7
84	24
85	48
86	8
87	4
88	2
89	4
90	1
92	3
93	9
94	2
95	45
96	999
97	430
98	92
99	22
100	3
101	1
103	1
105	2
109	5
110	7
111	8
112	410
113	238
114	45
115	19
116	3
117	14
118	1
119	1
126	6
127	5
128	5
129	9
130	36
131	6
132	8
133	4
135	1
140	11
141	15
142	13
143	10
144	4
145	7
146	2
147	2
148	1
149	1
158	1
159	15
160	65
161	282
162	25
163	26
164	2
165	1
174	2
175	1
176	9
177	921
178	73
179	92
180	7
181	2
