Mass Spectrum: Butanedioic acid, 2-hydroxy-2-methyl-, dimethyl ester, (2R)-
Formula: C7H12O5
CAS: 81426-68-8
Molecular weight: 176
m/z	intensity
14	3
15	43
16	1
26	3
27	15
28	8
29	48
30	6
31	26
32	2
33	12
37	1
38	4
39	31
40	8
41	28
42	64
43	999
44	35
45	23
46	1
47	2
53	4
54	1
55	11
56	6
57	32
58	52
59	102
60	3
61	4
67	2
68	2
69	26
70	2
71	3
72	2
73	1
74	46
75	88
76	3
77	1
83	1
85	507
86	24
87	3
89	1
98	1
99	7
100	3
101	39
102	4
103	12
104	1
113	1
115	1
117	703
118	42
119	6
126	1
127	10
128	1
129	5
131	1
133	1
145	6
161	2
