Mass Spectrum: (Diphenoxymethylenimino)suldur pentafluoride
Formula: C13H10F5NO2S
CAS: 81439-22-7
Molecular weight: 339
m/z	intensity
38	16
39	123
40	26
43	6
44	9
47	8
50	33
51	181
52	10
55	9
63	25
64	18
65	177
66	26
69	25
70	2
74	7
75	8
76	15
77	999
78	67
85	61
87	19
89	20
91	21
92	4
93	47
94	89
101	33
103	21
112	7
115	24
116	9
119	478
120	37
127	12
131	14
135	23
137	8
141	136
142	50
143	8
147	9
150	94
151	21
153	14
169	48
170	19
201	10
214	18
215	10
217	15
246	310
247	26
248	14
320	12
321	2
322	1
339	16
340	2
341	1
