Mass Spectrum: (Phenoxyformamido)sulfur pentafluoride
Formula: C7H6F5NO2S
CAS: 81439-23-8
Molecular weight: 263
m/z	intensity
39	111
47	44
63	24
65	189
66	111
77	83
89	46
93	78
94	999
95	62
112	20
121	26
127	167
129	7
135	10
150	220
152	9
169	7
170	3
243	62
244	6
245	3
263	11
264	1
265	1
