Mass Spectrum: [(Diethylamino)methoxymethylenimino]sulfur pentafluoride
Formula: C6H13F5N2OS
CAS: 81439-15-8
Molecular weight: 256
m/z	intensity
54	18
55	143
56	177
57	48
58	616
59	30
69	41
70	38
71	46
72	999
73	50
74	16
76	29
81	206
83	74
84	11
85	13
86	220
89	75
90	43
97	10
98	28
99	12
101	15
103	7
104	29
105	6
112	11
113	21
118	9
127	230
128	19
129	261
130	18
133	12
146	7
149	16
150	16
169	30
177	8
184	69
185	6
186	3
197	11
213	23
225	45
226	3
227	3
237	24
241	12
256	1
