Mass Spectrum: [1-(Diethylamino)ethylidenimino]sulfur pentafluoride
Formula: C6H13F5N2S
CAS: 81439-18-1
Molecular weight: 240
m/z	intensity
56	417
57	153
58	999
59	48
70	61
71	102
72	432
73	213
85	41
113	75
115	71
127	13
129	5
168	16
197	3
221	7
225	1
240	1
