Mass Spectrum: [Chloro(diethylamino)methylenimino]sulfur pentafluoride
Formula: C5H10ClF5N2S
CAS: 81439-13-6
Molecular weight: 260
m/z	intensity
70	223
71	59
73	292
75	69
84	415
85	54
89	255
90	999
91	52
92	382
94	83
97	121
98	204
104	106
105	68
122	70
127	963
133	948
134	61
135	317
136	67
137	53
149	124
169	326
177	83
188	217
190	78
197	247
225	468
241	204
243	78
245	98
260	52
