Mass Spectrum: Benzeneethanamine, 2-fluoro-.beta.-hydroxy-3,4-dimethoxy-N-isopropyl-
Formula: C13H20FNO3
CAS: 81441-08-9
Molecular weight: 257
m/z	intensity
41	37
42	19
43	56
44	12
45	3
46	0
47	4
48	2
49	17
50	4
51	16
52	2
53	3
54	4
55	5
56	23
57	23
58	19
59	3
60	1
62	1
63	4
64	4
65	8
66	2
67	3
68	3
69	6
70	13
71	19
72	999
73	58
74	4
75	4
76	5
77	7
78	2
79	3
80	1
81	3
82	3
83	12
84	14
85	2
86	8
88	1
89	1
90	0
91	5
92	3
93	4
94	2
95	7
96	6
97	6
98	2
99	7
100	1
101	1
103	0
104	0
105	1
106	0
107	3
108	1
109	4
110	2
111	5
112	5
113	6
114	2
119	3
120	2
121	3
122	2
123	4
124	4
125	4
126	14
127	7
128	1
132	0
135	2
136	1
137	2
138	1
139	7
140	8
141	7
142	16
143	1
147	0
148	0
149	5
150	2
151	2
152	2
153	1
154	0
155	2
156	1
157	11
158	1
165	3
166	2
167	3
168	1
169	10
170	2
171	2
178	2
180	0
181	0
182	5
183	10
184	8
185	27
186	4
192	0
193	2
194	2
195	0
196	0
197	0
198	2
207	0
208	0
210	0
220	0
222	0
224	18
225	2
237	2
238	4
239	1
240	2
242	0
257	13
258	2
