Mass Spectrum: Benzaldehyde, 4,5-dibenzyloxy-3-fluoro-
Formula: C21H17FO3
CAS: 81441-17-0
Molecular weight: 336
m/z	intensity
41	15
42	1
43	9
44	4
45	2
47	1
48	1
49	9
50	11
51	22
52	5
53	2
55	4
56	1
57	4
60	1
61	1
62	5
63	20
64	2
65	114
66	5
67	0
68	1
69	6
70	10
71	2
73	2
74	1
75	1
76	1
77	11
78	3
79	4
81	4
82	1
83	3
84	4
85	0
86	2
89	28
91	999
92	68
93	3
95	1
97	2
98	1
99	0
105	6
106	0
107	3
109	1
110	0
111	1
115	2
118	1
125	1
126	0
127	1
133	1
137	0
139	1
141	1
146	1
149	2
152	2
155	0
157	1
159	1
165	3
166	1
167	8
168	1
169	1
170	1
171	0
172	0
178	1
179	3
180	7
181	105
182	15
183	1
197	0
199	1
214	0
215	1
216	1
227	2
228	1
230	1
242	6
243	11
244	8
245	192
246	29
247	3
248	1
262	0
289	0
295	0
308	0
318	1
319	0
336	78
337	18
338	3
