Mass Spectrum: 1,3,5-Trithiocycloheptane
Formula: C4H8S3
CAS: 81451-19-6
Molecular weight: 152
m/z	intensity
41	85
45	813
46	174
47	25
57	85
58	183
59	999
60	875
61	131
64	346
78	272
87	604
92	144
106	106
124	131
152	986
154	47
