Mass Spectrum: 2-Thiophenecarboxylic acid, 3-methyl-, methyl ester
Formula: C7H8O2S
CAS: 81452-54-2
Molecular weight: 156
m/z	intensity
27	34
28	15
29	11
31	2
32	2
34	7
37	4
38	9
39	31
41	2
44	4
45	121
47	7
50	10
51	18
52	6
53	145
54	3
57	5
58	8
59	7
63	4
69	38
70	31
71	9
81	3
82	3
85	29
95	7
96	42
97	93
98	14
99	3
111	2
124	98
125	999
126	64
127	34
139	2
141	81
142	3
156	673
157	23
158	13
