Mass Spectrum: 3-Pentanone, 2-bromo-
Formula: C5H9BrO
CAS: 815-52-1
Molecular weight: 164
m/z	intensity
14	3
15	4
18	1
25	2
26	29
27	161
28	77
29	458
30	11
31	3
32	4
36	1
37	3
38	4
39	16
40	2
41	21
42	9
43	25
44	1
45	3
49	2
50	3
51	3
53	5
54	2
55	28
56	121
57	999
58	33
59	3
60	4
61	2
62	2
63	2
67	3
69	1
71	7
73	4
74	2
75	2
79	3
80	2
81	3
82	2
83	2
84	2
85	3
87	1
88	2
89	2
93	2
95	2
97	2
105	2
106	7
107	112
108	9
109	110
110	3
117	2
119	2
121	2
123	2
124	8
126	3
134	4
135	45
136	6
137	44
138	3
153	6
155	7
157	2
159	5
161	4
163	3
164	36
165	3
166	34
167	2
