Mass Spectrum: 2,5-Dimethyl-4-hydroxy-3-hexanone
Formula: C8H16O2
CAS: 815-77-0
Molecular weight: 144
m/z	intensity
15	6
17	1
18	3
26	4
27	97
28	20
29	55
30	6
31	49
32	1
37	1
38	3
39	54
40	8
41	156
42	28
43	615
44	22
45	72
46	1
47	1
51	1
53	9
54	2
55	408
56	34
57	54
58	9
59	7
60	3
67	2
68	1
69	46
70	18
71	218
72	220
73	999
74	44
75	3
83	11
84	11
85	10
86	4
87	84
88	12
89	3
91	1
97	2
99	2
100	1
101	4
102	40
103	2
111	2
112	1
113	2
115	5
125	1
126	1
127	6
128	1
129	1
130	1
142	3
143	2
144	3
