Mass Spectrum: 1,2,4,5,7,8-Hexathiocyclononane
Formula: C3H6S6
CAS: 81531-38-6
Molecular weight: 234
m/z	intensity
45	670
46	380
60	160
64	100
78	850
92	10
96	20
110	120
124	999
138	30
142	100
156	130
170	10
188	50
234	10
