Mass Spectrum: Indolo[3,2-b]indole, 5-acetyl-10-benzyl-5,10-dihydro-
Formula: C23H18N2O
CAS: 81548-01-8
Molecular weight: 338
m/z	intensity
36	1
37	1
39	60
40	19
41	22
43	277
44	10
45	1
50	58
51	54
52	10
53	1
56	1
62	12
63	31
64	3
65	184
66	7
67	1
69	2
70	1
71	2
74	16
75	52
76	124
77	142
78	9
79	1
80	0
81	0
89	33
90	7
91	999
92	61
93	3
94	0
95	0
96	0
101	9
102	73
103	20
104	11
105	1
106	0
111	1
112	2
113	3
114	3
115	4
116	2
117	0
118	0
119	1
120	1
121	0
122	0
123	1
124	1
125	3
126	4
127	4
128	3
129	4
130	0
132	0
133	1
134	0
135	0
136	0
137	2
138	2
139	4
140	3
141	0
142	0
143	0
144	0
145	0
146	1
147	0
148	0
149	4
150	10
151	28
152	9
153	5
154	0
155	0
161	0
162	1
163	7
164	8
165	13
166	2
167	0
168	0
171	0
174	0
175	4
176	14
177	46
178	17
179	3
180	0
185	0
186	0
187	0
188	2
189	3
190	11
191	3
192	1
193	0
194	0
195	0
199	0
200	0
201	0
202	3
203	29
204	69
205	697
206	106
207	8
208	0
210	0
211	0
212	0
213	0
214	0
215	1
216	1
217	2
218	3
219	3
220	0
225	0
226	0
227	0
228	0
229	0
230	0
231	0
237	0
238	0
239	1
240	0
241	0
242	0
247	2
248	0
251	0
252	0
253	0
254	0
262	0
263	0
264	1
265	1
266	1
267	0
295	44
296	156
297	33
298	4
299	0
338	136
339	40
340	4
341	0
