Mass Spectrum: 1,4-Bis(2-propanol)benzene, 2TMS derivative
Formula: C18H34O4Si2
CAS: 81591-78-8
Molecular weight: 370
m/z	intensity
29	13
30	4
31	37
32	2
33	1
37	1
38	4
39	44
40	8
41	132
42	26
43	999
44	39
45	179
46	16
47	83
48	4
49	4
50	12
51	14
52	3
53	8
54	2
55	9
56	2
57	16
58	16
59	179
60	21
61	79
62	7
63	9
64	3
65	19
66	2
67	2
69	1
70	1
71	2
72	5
73	137
74	32
75	322
76	52
77	76
78	17
79	15
80	1
81	3
82	2
85	1
87	1
88	9
89	84
90	39
91	125
92	10
93	8
94	2
95	3
101	2
102	8
103	27
104	12
105	65
106	8
107	16
108	1
109	3
110	11
111	1
113	1
114	2
115	44
116	17
117	127
118	328
119	57
120	6
121	10
122	1
123	1
127	3
128	9
129	11
130	7
131	44
132	29
133	343
134	58
135	32
136	3
137	1
141	1
142	2
143	8
144	6
145	78
146	13
147	20
148	3
149	3
150	2
151	4
152	1
153	1
154	1
155	1
156	3
157	4
158	7
159	99
160	351
161	189
162	25
163	5
173	1
174	4
175	42
176	28
177	61
178	8
179	2
190	5
191	3
192	6
193	7
194	1
205	1
206	1
207	8
208	3
209	5
210	1
219	1
232	1
233	1
234	2
235	27
236	5
237	1
249	2
250	17
251	6
252	2
253	2
255	3
256	1
257	1
258	2
259	2
260	3
261	5
262	7
263	12
264	22
265	483
266	100
267	26
268	3
