Mass Spectrum: Butanoic acid, 2-ethyl-, methyl ester
Formula: C7H14O2
CAS: 816-11-5
Molecular weight: 130
m/z	intensity
26	37
27	363
28	51
29	365
30	15
31	28
33	5
34	0
36	1
37	6
38	29
39	226
40	41
41	344
42	113
43	999
44	35
45	38
46	0
48	0
49	1
50	8
51	12
52	6
53	38
55	353
56	19
57	10
59	238
60	7
61	8
62	1
63	1
65	3
66	2
67	6
69	169
70	104
71	419
72	20
73	26
74	36
75	2
78	1
79	0
80	0
81	0
83	21
84	1
85	4
87	703
88	53
89	3
91	0
93	0
94	0
95	0
96	0
97	1
99	193
100	45
101	334
102	911
103	50
104	4
106	1
107	1
109	0
113	0
115	48
116	3
117	0
124	0
126	0
129	0
130	0
131	2
132	0
