Mass Spectrum: Pentanoic acid, 2-ethyl-, methyl ester
Formula: C8H16O2
CAS: 816-16-0
Molecular weight: 144
m/z	intensity
27	189
28	74
29	143
30	5
31	18
33	4
34	2
35	1
38	2
39	89
40	4
41	253
42	52
43	990
44	19
45	23
50	1
51	0
52	3
53	28
54	9
55	220
56	71
57	90
58	2
59	172
60	9
61	6
64	2
65	3
66	0
67	4
68	3
69	69
70	33
71	3
72	8
73	25
78	1
81	5
82	3
83	51
84	29
85	251
86	22
87	999
88	25
89	8
91	0
97	3
99	0
100	0
101	107
102	806
103	50
104	5
112	0
113	110
114	15
115	227
116	190
117	12
118	1
129	10
130	1
143	1
144	0
146	1
