Mass Spectrum: 3,5,9-Trioxa-4-phosphaheptacosan-1-aminium, 4-hydroxy-N,N,N-trimethyl-10-oxo-7-[(1-oxooctadecyl)oxy]-, hydroxide, inner salt, 4-oxide, (R)-
Formula: C44H88NO8P
CAS: 816-94-4
Molecular weight: 789
m/z	intensity
26	14
27	57
28	196
29	119
30	37
31	32
32	47
33	5
38	9
39	59
40	28
41	410
42	290
43	811
44	145
45	85
46	6
47	30
48	6
49	3
50	5
51	12
52	14
53	43
54	82
55	811
56	324
57	999
58	512
59	162
60	264
61	89
62	7
63	11
64	6
65	29
66	17
67	170
68	119
69	529
70	213
71	837
72	111
73	376
74	76
75	25
76	7
77	26
78	32
79	179
80	41
81	230
82	179
83	444
84	307
85	418
86	98
87	170
88	34
89	21
90	5
91	30
92	11
93	51
94	40
95	256
96	136
97	444
98	547
99	188
100	68
101	89
102	23
103	16
104	12
105	30
106	10
107	47
108	222
109	153
110	71
111	213
112	213
113	188
114	28
115	128
116	230
117	153
118	17
119	17
120	11
121	55
122	25
123	79
124	36
125	99
126	64
127	92
128	17
129	410
130	47
131	32
132	11
133	19
134	23
135	67
136	17
137	58
138	37
139	49
140	58
141	46
142	16
143	52
144	16
145	18
146	6
147	18
148	9
149	51
150	39
151	50
152	23
153	35
154	55
155	49
156	15
157	29
158	103
159	32
160	12
161	11
162	6
163	24
164	8
165	22
166	17
167	33
168	128
169	606
170	45
171	222
172	35
173	12
174	8
175	9
176	10
177	11
178	8
179	13
180	17
181	20
182	44
183	80
184	17
185	196
186	35
187	9
188	8
189	10
190	6
191	62
192	7
193	13
194	10
195	17
196	29
197	30
198	11
199	49
200	14
201	11
202	6
203	8
204	5
205	8
206	5
207	7
208	5
209	16
210	136
211	32
212	8
213	51
214	13
215	7
216	5
217	13
218	17
219	24
220	11
221	7
222	23
223	341
224	55
225	34
226	8
227	95
228	22
229	10
230	5
231	9
232	8
233	8
234	4
235	7
236	6
237	39
238	11
239	26
240	11
241	136
242	26
243	6
245	4
246	5
247	11
248	14
249	13
250	5
251	10
252	8
253	19
254	9
255	47
256	15
257	6
258	5
259	10
260	6
261	7
262	4
263	6
264	26
265	53
266	119
267	965
268	188
269	45
270	10
271	5
272	2
273	6
274	6
275	11
276	5
277	5
278	4
279	58
280	14
281	23
282	11
283	38
284	213
285	70
286	65
287	5
288	4
289	2
290	2
291	2
292	7
293	12
294	6
295	16
296	8
297	58
298	23
299	8
300	5
301	10
302	5
303	4
304	2
306	2
307	9
308	11
309	17
310	13
311	35
312	12
313	10
314	5
315	6
316	5
317	3
318	2
319	3
320	2
321	11
322	11
323	18
324	27
325	81
326	26
327	162
328	39
329	8
330	3
331	3
332	2
333	2
334	3
335	19
336	12
337	15
338	15
339	85
340	188
341	752
342	170
343	31
344	7
345	4
349	11
350	5
351	6
352	9
353	22
354	11
355	10
356	6
357	9
358	7
359	136
360	34
361	6
362	1
363	5
364	5
365	10
366	7
367	15
368	11
369	17
370	6
371	5
372	5
373	4
375	4
376	3
377	8
378	4
379	5
380	6
381	12
382	196
383	79
384	17
385	12
386	12
387	5
388	4
391	36
392	11
393	14
394	8
395	700
396	205
397	35
398	7
399	4
400	14
401	5
402	5
404	4
405	15
406	5
407	5
408	5
409	40
410	17
411	6
412	3
420	2
421	5
422	5
423	11
424	12
425	8
427	5
434	35
435	13
437	72
438	27
439	7
440	3
446	4
447	5
448	6
449	11
450	7
451	205
452	64
453	13
454	3
456	2
463	3
465	23
466	9
467	4
469	18
470	10
479	21
480	9
481	3
493	32
494	12
495	5
496	2
507	51
508	23
509	5
516	3
520	2
521	29
522	17
523	9
533	3
534	2
535	18
536	11
537	4
547	3
548	4
549	22
550	11
551	5
563	119
564	47
565	14
566	5
577	34
578	17
579	6
591	7
593	9
594	5
606	333
607	145
608	40
