Mass Spectrum: Urea, N-nitroso-N-propyl-
Formula: C4H9N3O2
CAS: 816-57-9
Molecular weight: 131
m/z	intensity
26	100
27	440
28	999
29	260
30	540
31	140
37	50
38	78
39	360
40	130
41	720
42	540
43	999
44	530
45	26
46	10
47	220
51	12
52	10
54	25
55	23
56	104
57	24
58	30
59	680
60	48
70	180
71	34
72	10
73	16
74	32
79	10
84	18
88	800
89	36
102	70
124	15
131	160
