Mass Spectrum: 4-Methyl-2-oxovaleric acid
Formula: C6H10O3
CAS: 816-66-0
Molecular weight: 130
m/z	intensity
12	2
14	23
15	98
16	2
17	4
18	2
19	2
26	41
27	311
29	446
30	10
31	9
37	20
38	57
39	390
40	9
41	887
42	239
43	390
44	45
45	320
46	11
47	3
49	4
50	17
51	18
52	5
53	25
54	6
55	53
56	3
57	999
58	47
59	11
60	42
61	3
65	1
67	4
69	106
70	6
71	15
74	2
83	18
85	426
86	25
87	8
88	14
89	6
97	3
130	2
