Mass Spectrum: Propanoic acid, 2-methyl-, 2-methyl-2-propenyl ester
Formula: C8H14O2
CAS: 816-73-9
Molecular weight: 142
m/z	intensity
26	5
27	67
28	15
29	46
30	1
31	3
37	3
38	11
39	161
40	26
41	183
42	33
43	999
44	37
45	5
50	6
51	9
52	5
53	46
54	59
55	287
56	21
57	79
58	3
59	2
69	8
70	23
71	867
72	112
73	8
74	3
81	1
87	1
89	16
99	6
142	3
