Mass Spectrum: 2-Propanone, 1,3-dibromo-
Formula: C3H4Br2O
CAS: 816-39-7
Molecular weight: 214
m/z	intensity
25	12
26	92
27	225
28	33
29	24
30	1
31	1
36	6
37	22
38	27
39	28
40	4
41	27
42	999
43	308
44	8
45	3
49	1
52	1
53	5
54	1
55	4
56	1
57	3
69	1
71	1
77	2
79	68
80	14
81	64
82	14
83	1
91	18
92	31
93	488
94	36
95	446
96	4
97	0
104	3
105	13
106	7
107	16
108	3
109	4
120	32
121	816
122	55
123	798
124	20
125	1
135	2
137	2
158	1
160	2
162	1
171	8
172	1
173	16
174	1
175	8
176	1
214	95
215	2
216	193
217	5
218	89
219	2
