Mass Spectrum: Pentanoic acid, 2-(2-cyanoethylamino)-4-methyl-
Formula: C9H16N2O2
CAS: 81666-40-2
Molecular weight: 184
m/z	intensity
33	2
39	450
40	165
41	999
42	353
43	497
44	113
45	596
46	38
47	8
50	14
51	38
52	66
53	95
54	298
55	163
56	662
57	53
58	31
59	7
60	11
62	3
63	1
64	2
65	11
66	12
67	42
68	113
69	57
70	46
71	11
72	9
73	24
74	11
75	2
77	6
78	3
79	10
81	349
82	98
83	263
84	50
86	30
87	32
88	116
89	3
91	1
93	3
95	13
96	52
97	124
98	81
99	11
100	10
101	3
102	1
106	0
109	12
110	7
111	2
112	3
113	4
114	6
115	2
116	6
117	1
123	28
124	1
126	2
127	134
128	29
137	22
139	942
140	71
141	5
144	2
157	17
167	1
169	1
184	7
185	1
