Mass Spectrum: 3,7-Nonadien-2-one, 4,8-dimethyl-
Formula: C11H18O
CAS: 817-88-9
Molecular weight: 166
m/z	intensity
26	6
27	97
28	177
29	64
30	1
31	5
37	2
38	7
39	156
40	27
41	809
42	36
43	580
44	20
45	16
46	1
50	8
51	27
52	13
53	99
54	23
55	127
56	7
57	24
58	3
59	55
60	4
61	2
62	2
63	8
64	2
65	28
66	11
67	139
68	34
69	999
70	57
71	20
72	5
73	2
74	2
75	4
76	2
77	38
78	8
79	46
80	13
81	159
82	226
83	802
85	44
86	36
87	47
88	3
89	2
91	44
92	7
93	62
94	80
95	106
96	34
97	27
98	296
99	22
100	2
101	1
102	1
103	4
104	2
105	20
106	17
107	83
108	257
109	211
110	26
111	65
112	7
113	2
114	0
115	4
116	2
117	3
118	1
119	4
120	2
121	14
122	17
123	295
124	33
125	5
126	1
127	1
128	1
129	1
130	0
131	2
133	20
134	3
135	4
136	2
137	6
138	5
139	3
140	1
141	5
142	2
147	2
148	11
149	9
150	2
151	86
152	10
153	2
164	1
165	3
166	104
167	13
168	2
