Mass Spectrum: Methylcarbamothioic acid, O-ethyl ester
Formula: C4H9NOS
CAS: 817-73-2
Molecular weight: 119
m/z	intensity
27	440
28	210
29	400
30	450
33	28
42	150
45	100
47	88
58	999
59	130
60	220
61	72
62	160
74	370
75	80
91	60
119	320
120	60
121	32
