Mass Spectrum: Carbonochloridic acid, 2-chloro-1-methylethyl ester
Formula: C4H6Cl2O2
CAS: 817-80-1
Molecular weight: 156
m/z	intensity
14	7
15	25
18	3
25	2
26	17
27	70
28	22
29	34
30	3
31	15
35	13
36	11
37	12
38	16
39	98
40	22
41	350
42	27
43	61
44	24
45	19
47	5
48	7
49	101
50	9
51	34
52	2
57	5
58	2
59	5
61	10
62	9
63	957
64	16
65	309
66	4
75	8
76	258
77	233
78	91
79	77
80	3
81	5
91	3
93	41
94	22
95	14
96	7
106	3
107	999
108	16
109	329
110	11
111	2
141	18
143	12
