Mass Spectrum: 5-Benzyldihydro-1,3,5-dioxazine
Formula: C10H13NO2
CAS: 81763-19-1
Molecular weight: 179
m/z	intensity
28	40
30	120
31	20
39	70
41	40
42	150
51	40
58	40
63	40
65	150
83	30
85	20
88	250
89	40
90	20
91	999
92	220
118	20
119	40
148	50
178	50
179	70
