Mass Spectrum: Imidazole, 2-pentadecafluoroheptyl-
Formula: C10H3F15N2
CAS: 81769-49-5
Molecular weight: 436
m/z	intensity
41	28
42	3
43	7
44	9
45	5
46	7
47	0
50	6
51	7
52	7
53	3
54	0
55	6
56	3
57	6
58	2
59	1
60	1
62	1
63	4
64	1
65	1
66	7
67	4
68	1
69	197
70	54
71	7
72	0
73	0
74	2
75	6
76	5
77	3
78	3
79	1
81	4
82	3
83	4
84	1
85	2
86	0
88	2
89	27
90	120
91	10
93	21
94	6
95	2
96	2
97	8
98	3
99	1
100	30
101	4
102	1
105	1
106	2
107	1
108	6
109	1
110	0
111	1
112	8
113	2
114	1
115	1
116	19
117	999
118	124
119	47
120	5
121	13
122	1
124	5
125	3
126	0
129	1
131	43
132	2
133	0
135	1
138	4
139	5
140	1
141	0
143	5
144	0
146	2
147	7
148	89
149	13
150	3
151	2
152	1
155	1
158	1
159	1
160	0
162	4
163	0
165	7
166	42
167	10
168	0
169	16
170	3
171	0
178	5
179	8
180	1
181	5
182	1
185	0
189	4
190	0
191	0
193	2
196	5
197	29
198	22
199	2
200	0
208	1
209	1
215	1
216	5
217	3
219	2
220	0
227	4
228	7
229	3
231	1
236	0
239	3
246	1
247	8
248	6
249	1
258	1
259	0
265	0
266	4
267	2
269	0
277	1
278	1
279	1
281	0
296	0
297	2
298	0
308	1
316	3
317	2
327	0
347	2
358	0
366	0
367	5
368	0
389	0
397	4
399	0
408	3
417	105
418	19
419	2
435	3
436	140
437	29
438	4
