Mass Spectrum: Imidazole, 4-heneicosafluorodecyl-
Formula: C13H3F21N2
CAS: 81769-57-5
Molecular weight: 586
m/z	intensity
41	6
42	1
43	3
44	3
45	1
46	4
50	2
51	3
52	5
53	1
55	3
56	2
57	3
58	1
59	1
60	0
62	0
63	3
65	0
66	9
67	4
69	134
70	37
71	6
72	0
74	1
75	9
76	1
77	1
78	2
79	0
81	2
82	1
83	2
84	0
85	1
86	0
88	1
89	21
90	105
91	6
93	9
94	4
95	1
96	0
97	2
98	2
99	0
100	21
101	1
102	1
106	3
107	0
108	2
109	0
111	0
112	4
113	2
115	0
116	18
117	999
118	140
119	39
120	4
121	10
122	0
124	3
125	3
127	0
128	0
129	2
131	41
132	1
133	0
135	2
137	0
138	0
139	3
140	0
141	0
143	3
144	0
146	0
147	2
148	83
149	9
150	1
151	0
152	2
155	0
158	0
159	0
160	0
162	3
163	0
166	4
167	12
168	1
169	15
170	1
171	1
175	0
178	0
179	9
180	1
181	6
182	0
185	0
186	0
189	2
190	0
191	0
193	2
197	3
198	48
199	5
208	0
210	0
212	0
216	4
217	5
218	0
219	2
220	0
228	1
229	3
231	2
234	0
239	2
243	0
247	0
248	5
249	0
253	0
266	0
267	5
268	0
269	0
278	1
279	1
281	0
286	0
298	0
317	4
329	0
367	3
386	0
417	4
418	0
467	3
468	0
517	15
518	2
535	1
547	1
558	10
559	1
566	0
567	276
568	50
569	4
585	8
586	185
587	65
588	10
589	0
