Mass Spectrum: Imidazole, 2-heptafluoropropyl-
Formula: C6H3F7N2
CAS: 81769-47-3
Molecular weight: 236
m/z	intensity
41	37
42	2
43	5
44	11
45	7
46	10
47	1
48	0
49	3
50	18
51	12
52	13
53	5
55	6
56	3
57	4
58	3
59	1
60	1
62	4
63	9
64	2
65	2
66	13
67	4
69	168
70	102
71	9
72	1
73	1
74	10
75	10
76	8
77	4
78	2
79	1
81	4
82	2
83	3
84	3
85	1
86	2
88	4
89	35
90	269
91	13
93	31
94	9
95	2
96	1
97	11
98	3
99	0
100	37
101	5
102	2
103	0
105	3
106	1
107	2
108	9
109	1
110	0
111	0
112	5
113	4
115	2
116	12
117	999
118	51
119	33
120	7
121	17
122	1
124	3
125	1
128	0
129	1
131	16
132	1
135	2
138	3
139	1
140	2
143	3
147	8
148	47
149	10
150	2
151	1
152	0
158	15
159	0
165	1
166	4
167	31
168	2
169	7
170	3
177	1
178	1
181	0
185	2
186	0
189	2
190	0
196	1
197	33
198	3
208	7
217	114
218	12
227	0
235	1
236	388
237	35
238	2
