Mass Spectrum: Imidazole, 4-pentafluoroethyl-
Formula: C5H3F5N2
CAS: 81769-52-0
Molecular weight: 186
m/z	intensity
41	16
42	6
43	14
44	15
45	6
46	17
50	23
51	18
52	19
53	5
55	12
56	11
57	9
58	7
59	1
62	1
63	17
65	1
66	17
67	16
68	5
69	163
70	171
71	21
74	7
75	23
76	3
78	3
81	5
82	7
83	7
88	7
89	44
90	441
91	19
93	23
94	3
95	7
97	6
100	11
108	12
112	1
113	8
115	7
116	6
117	999
118	68
119	13
120	8
131	9
135	9
138	6
139	6
140	3
148	3
158	17
167	107
168	8
186	403
187	39
