Mass Spectrum: 5-(Benzylsulfonyl)dihydro-1,3,5-dioxazine
Formula: C10H13NO4S
CAS: 81763-18-0
Molecular weight: 243
m/z	intensity
28	41
29	50
30	40
31	20
39	40
42	20
43	40
63	20
65	120
88	60
89	40
90	20
91	999
92	140
178	20
243	20
