Mass Spectrum: Imidazole, 2-heneicosafluorodecyl-
Formula: C13H3F21N2
CAS: 81769-51-9
Molecular weight: 586
m/z	intensity
41	17
42	2
43	5
44	7
45	4
46	4
50	3
51	4
52	4
53	1
54	0
55	4
56	2
57	4
58	1
59	1
60	1
62	0
63	2
64	0
65	1
66	4
67	3
68	1
69	132
70	31
71	4
74	1
75	2
76	2
77	2
78	5
79	1
81	3
82	2
83	3
84	1
85	1
86	0
88	1
89	17
90	71
91	5
93	11
94	4
95	2
96	1
97	5
98	1
99	2
100	21
101	2
102	1
105	0
106	3
107	1
108	3
109	1
111	1
112	4
113	1
115	0
116	12
117	999
118	110
119	35
120	2
121	9
122	0
124	4
125	1
126	0
127	1
128	1
129	1
131	38
132	1
135	1
138	1
139	2
140	1
141	0
143	3
147	8
148	72
149	7
150	1
151	1
152	1
155	1
158	0
160	0
162	3
166	2
167	6
169	12
170	1
171	0
178	3
179	9
180	1
181	5
182	0
189	2
190	0
191	0
193	1
197	2
198	17
199	1
209	0
212	0
216	2
217	3
219	1
220	0
228	4
229	3
231	1
239	1
243	0
247	0
248	5
266	0
267	2
278	0
279	1
298	0
317	2
367	2
417	2
467	1
517	3
518	0
558	1
567	98
568	17
569	1
585	3
586	79
587	19
588	2
