Mass Spectrum: (1S,4R,5R)-1,3,3-Trimethyl-2-oxabicyclo[2.2.2]octan-5-yl acetate
Formula: C12H20O3
CAS: 81781-24-0
Molecular weight: 212
m/z	intensity
26	1
27	15
28	2
29	23
30	1
31	5
38	1
39	48
40	10
41	140
42	19
43	999
44	25
45	40
46	1
50	2
51	10
52	7
53	52
54	14
55	140
56	45
57	46
58	62
59	73
60	3
61	5
62	1
63	3
64	1
65	29
66	11
67	180
68	78
69	203
70	20
71	182
72	16
73	2
74	2
77	61
78	12
79	146
80	20
81	94
82	242
83	243
84	100
85	84
86	8
87	91
88	4
89	1
91	39
92	8
93	405
94	180
95	137
96	26
97	41
98	10
99	49
100	30
101	31
102	2
103	8
106	2
107	29
108	283
109	544
110	63
111	204
112	53
113	14
114	4
119	31
120	3
121	5
122	2
123	58
124	94
125	24
126	73
127	32
128	5
129	27
130	2
135	13
136	5
137	404
138	39
139	4
141	52
142	13
143	1
150	1
151	3
152	221
153	99
154	18
155	8
156	1
169	3
170	9
171	1
183	1
197	75
198	9
199	1
212	47
213	6
214	1
