Mass Spectrum: 4,5-Dihydro-N-(O-methoxyphenyl)-3-furamide
Formula: C12H13NO3
CAS: 81787-46-4
Molecular weight: 219
m/z	intensity
15	1
27	3
28	6
29	3
38	2
39	31
40	4
41	84
42	3
43	2
50	2
51	9
52	13
53	6
54	1
55	1
62	1
63	4
64	5
65	17
66	2
67	2
68	2
69	85
70	4
76	1
77	7
78	5
79	4
80	8
81	1
90	1
91	3
92	10
93	3
94	3
95	17
96	1
97	999
98	56
99	5
105	1
106	3
107	1
108	16
109	4
111	1
112	1
120	4
121	2
122	8
123	21
124	4
130	1
134	4
135	4
136	5
144	2
146	1
149	1
150	1
159	10
160	3
161	1
162	1
174	1
175	1
188	16
189	3
190	1
202	1
217	1
218	2
219	384
220	54
221	6
