Mass Spectrum: N-(O-Chlorophenyl)-4,5-dihydro-3-furamide
Formula: C11H10ClNO2
CAS: 81787-45-3
Molecular weight: 223
m/z	intensity
15	1
27	3
28	5
29	7
36	1
37	2
38	6
39	54
40	9
41	108
42	5
43	3
49	1
50	4
51	5
52	4
53	4
54	1
55	1
61	1
62	4
63	12
64	8
65	8
66	2
67	3
68	5
69	100
70	7
71	1
73	7
74	3
75	11
76	2
77	3
78	1
79	1
85	1
89	1
90	9
91	5
92	4
93	1
95	10
96	1
97	999
98	59
99	20
100	3
101	6
102	2
103	1
104	1
111	7
113	2
115	1
117	1
125	1
126	6
127	16
128	4
129	6
130	3
131	1
132	1
138	4
140	3
144	1
149	1
153	1
154	2
158	1
159	4
160	2
164	1
166	1
186	1
187	5
188	186
189	22
190	2
194	1
195	1
222	1
223	162
224	20
225	53
226	7
