Mass Spectrum: 1,3,3-Trimethyl-2-oxabicyclo[2.2.2]octane-5,8-dione
Formula: C10H14O3
CAS: 81781-21-7
Molecular weight: 182
m/z	intensity
39	160
43	560
55	410
59	170
69	340
82	670
83	999
85	280
98	140
125	630
136	55
140	150
164	200
167	250
182	150
