Mass Spectrum: Thieno[3,4-d]-1,3-thioselenol-2-thione
Formula: C5H2S3Se
CAS: 81794-53-8
Molecular weight: 238
m/z	intensity
45	999
57	110
69	820
70	80
71	40
76	260
78	80
81	240
82	600
89	160
110	80
112	240
114	120
115	110
116	20
117	220
118	40
119	50
158	100
160	30
162	20
190	90
191	80
192	220
193	20
194	460
195	30
196	110
234	100
235	80
236	280
237	40
238	570
239	50
240	170
