Mass Spectrum: 4-Pentenoic acid, methyl ester
Formula: C6H10O2
CAS: 818-57-5
Molecular weight: 114
m/z	intensity
14	3
15	70
16	1
25	1
26	25
27	173
28	58
29	202
30	7
31	15
32	1
33	4
37	7
38	18
39	232
40	20
41	168
42	90
43	110
44	8
45	35
49	5
50	26
51	34
52	14
53	128
54	433
55	999
56	68
57	55
58	18
59	421
60	16
61	6
65	1
67	3
68	2
69	6
70	1
71	48
72	256
73	12
74	55
75	2
79	1
80	1
81	40
82	284
83	407
84	22
85	10
86	9
87	30
88	2
94	1
95	1
97	3
99	40
100	4
111	1
113	23
114	262
115	17
116	1
