Mass Spectrum: 3-Pentenoic acid, methyl ester
Formula: C6H10O2
CAS: 818-58-6
Molecular weight: 114
m/z	intensity
15	209
16	3
27	219
28	5
29	289
30	7
39	159
40	5
53	109
54	139
55	999
56	45
57	1
59	339
60	8
61	1
72	129
73	5
74	1
82	109
83	103
84	6
85	1
99	39
100	2
114	359
115	25
116	2
