Mass Spectrum: 2-Propenoic acid, 3-(dimethylamino)-, 1,1-dimethylethyl ester
Formula: C9H17NO2
CAS: 818-00-8
Molecular weight: 171
m/z	intensity
26	27
27	119
28	98
29	157
30	60
31	28
34	5
35	3
36	16
37	5
38	17
39	111
40	30
41	177
42	241
43	144
44	135
45	32
46	20
47	2
48	3
49	4
50	8
51	9
52	14
53	34
54	55
55	163
56	161
57	160
58	33
59	63
60	17
61	3
62	3
64	5
66	7
67	13
68	66
69	128
70	999
71	161
72	18
73	22
74	4
78	21
79	4
80	4
81	9
82	98
83	19
84	43
85	9
86	22
87	5
89	8
93	4
94	3
95	6
96	11
97	178
98	728
99	90
100	151
101	16
102	13
103	4
104	4
109	3
110	6
111	7
112	8
113	21
114	115
115	609
116	84
117	9
121	3
122	3
123	3
124	10
125	4
128	3
129	4
141	4
171	300
172	58
173	7
