Mass Spectrum: 8-Pentadecanone
Formula: C15H30O
CAS: 818-23-5
Molecular weight: 226
m/z	intensity
27	79
28	35
29	224
30	10
39	46
40	11
41	334
42	73
43	424
44	19
45	7
53	24
54	13
55	241
56	47
57	999
58	534
59	174
60	12
67	63
68	38
69	71
70	34
71	340
72	62
73	8
77	8
79	11
81	46
82	190
83	70
84	65
85	95
86	49
95	65
96	13
97	25
98	24
99	120
100	84
101	13
109	83
110	11
111	17
113	57
114	21
124	61
125	15
127	660
128	71
129	14
142	267
143	100
144	11
149	34
155	122
156	18
169	25
170	8
183	16
184	12
197	10
226	49
227	10
