Mass Spectrum: 1-Octanol, 2-methyl-
Formula: C9H20O
CAS: 818-81-5
Molecular weight: 144
m/z	intensity
26	7
27	141
28	37
29	250
30	9
31	133
39	108
40	22
41	551
42	203
43	837
44	28
45	33
51	7
52	3
53	32
54	19
55	343
56	470
57	999
58	51
59	20
65	3
67	24
68	28
69	275
70	296
71	621
72	32
73	3
77	3
79	2
81	5
82	48
83	208
84	259
85	42
86	2
87	5
91	2
93	5
96	13
97	139
98	80
99	7
107	4
110	4
111	25
112	37
113	9
126	70
127	11
143	0
