Mass Spectrum: 4,7,7-Trimethylbicyclo[4.1.0]hept-3-en-2-one
Formula: C10H14O
CAS: 81800-50-2
Molecular weight: 150
m/z	intensity
26	4
27	57
29	30
37	6
38	26
39	336
40	69
41	258
42	37
43	67
45	3
46	6
49	2
50	43
51	109
52	57
53	166
54	71
55	92
56	19
58	7
60	7
61	5
62	16
63	54
64	12
65	161
66	85
67	287
68	33
69	79
70	34
74	10
75	7
76	6
77	277
78	58
79	462
80	179
81	75
82	131
83	28
89	11
90	14
91	659
92	99
93	102
94	71
95	239
96	45
102	4
103	30
104	8
105	260
106	42
107	999
108	508
109	367
110	21
115	65
116	17
117	80
118	9
120	7
121	113
122	96
123	22
124	3
132	11
133	13
135	431
136	42
149	32
150	980
151	100
152	5
