Mass Spectrum: (1S,4R,5R)-1,3,3-Trimethyl-2-oxabicyclo[2.2.2]octan-5-ol
Formula: C10H18O2
CAS: 81801-58-3
Molecular weight: 170
m/z	intensity
27	44
29	26
37	7
39	216
40	40
41	505
50	6
51	43
52	22
53	180
54	51
55	358
56	351
57	271
58	471
59	536
63	29
64	7
65	88
66	29
67	281
68	243
69	999
70	89
71	633
72	36
77	135
78	33
79	223
80	37
81	130
82	224
83	329
84	677
85	761
87	673
88	25
91	82
92	16
93	863
94	133
95	112
96	6
97	148
99	61
100	130
101	7
106	11
107	52
108	747
109	510
110	69
111	409
112	130
113	100
114	17
117	11
119	95
121	152
122	14
123	25
124	16
125	45
126	129
127	349
128	131
133	25
134	46
135	12
136	79
137	246
138	24
141	85
142	23
148	20
152	13
153	11
155	219
156	24
170	287
171	35
