Mass Spectrum: Thieno[2,3-d]-1,3-thiaselenol-2-thione
Formula: C5H2S3Se
CAS: 81803-09-0
Molecular weight: 238
m/z	intensity
37	220
38	190
44	180
45	660
56	60
57	110
58	80
68	100
69	999
70	400
71	70
76	360
78	80
80	110
81	240
82	380
88	280
90	50
100	100
101	50
112	130
113	120
114	230
115	260
116	120
117	500
118	160
119	110
120	60
122	100
124	190
126	160
134	70
136	150
148	50
150	60
158	370
159	50
160	100
162	100
190	80
191	50
192	150
193	20
194	300
195	20
196	80
234	130
235	110
236	320
237	40
238	650
239	60
240	200
