Mass Spectrum: 2-Bromomethyl-4,5-diphenyl-oxazole
Formula: C16H12BrNO
CAS: 81819-14-9
Molecular weight: 313
m/z	intensity
12	1
14	5
15	4
16	4
17	26
18	85
26	10
27	27
28	35
29	13
30	1
31	5
32	6
36	1
37	3
38	10
39	51
40	5
41	14
42	11
43	60
44	9
45	3
50	70
51	185
52	20
53	7
54	1
55	7
56	3
57	10
58	1
59	1
60	1
61	4
62	21
63	51
64	6
65	4
66	1
67	1
68	2
69	6
71	5
72	1
73	2
74	15
75	18
76	53
77	349
78	30
79	8
80	4
81	7
82	13
84	2
85	4
86	7
87	10
88	12
89	41
90	4
91	3
92	1
93	3
94	2
95	3
96	2
97	3
98	3
99	3
100	3
101	8
102	42
103	999
104	165
105	262
106	21
107	5
108	1
109	1
110	2
111	3
112	2
113	5
114	2
115	9
117	36
120	1
121	1
122	3
123	3
125	1
126	4
127	3
128	67
129	51
130	7
131	10
132	6
133	1
134	1
137	2
138	2
139	13
140	3
146	3
148	1
149	4
150	2
151	4
152	3
153	1
156	6
157	2
161	1
162	2
163	16
164	18
165	75
166	12
167	1
171	1
175	6
176	3
177	2
178	4
179	1
180	1
181	2
182	1
183	1
189	0
190	2
191	1
192	1
193	2
194	1
202	0
203	1
204	4
205	1
206	40
207	8
208	1
209	0
210	6
211	1
217	1
219	1
232	2
234	330
235	67
236	6
237	0
239	1
269	2
271	1
280	1
313	75
314	14
315	75
316	14
317	1
