Mass Spectrum: Tetrahydropyran, 2-(11-iodoundecyloxy)-
Formula: C16H31IO2
CAS: 81819-10-5
Molecular weight: 382
m/z	intensity
26	4
27	45
28	32
29	83
30	2
31	22
37	0
38	1
39	35
40	8
41	217
42	36
43	125
44	9
45	5
46	0
47	1
50	2
51	3
52	1
53	17
54	27
55	396
56	181
57	118
58	5
59	2
65	3
66	2
67	61
68	12
69	202
70	16
71	55
72	2
73	1
74	3
77	1
78	1
79	2
80	0
81	14
82	8
83	197
84	116
85	999
86	53
87	4
91	1
92	0
93	1
94	0
95	10
96	3
97	207
98	14
99	3
100	5
101	98
102	12
103	4
104	0
105	0
106	0
107	0
109	4
110	1
111	42
112	4
113	1
114	0
115	17
116	2
117	0
120	0
121	0
122	0
123	1
124	0
125	2
126	0
127	2
128	2
129	1
130	1
135	0
136	0
137	0
138	0
139	0
140	0
141	1
148	1
149	2
150	1
151	1
152	0
153	5
154	1
155	27
156	1
157	0
158	0
159	0
160	1
161	0
162	0
163	0
164	0
165	0
166	0
167	0
168	0
169	14
170	0
171	32
172	4
173	0
179	1
180	0
181	1
182	0
183	78
184	2
185	1
186	1
196	2
197	14
198	0
199	1
210	1
211	9
212	0
222	0
223	0
225	7
226	0
237	0
238	0
239	4
240	0
246	4
247	0
248	0
249	0
250	1
251	0
252	1
253	0
254	45
255	14
256	2
260	0
262	0
263	0
278	2
279	0
280	2
281	9
282	0
297	0
298	0
309	18
310	1
324	1
325	0
333	0
334	0
335	1
348	0
354	2
364	1
381	129
382	29
383	4
384	0
