Mass Spectrum: 5,7:23,25-Dietheno-8H,22H-diindeno[2,1-q:1',2'-r][1,4,7,10,13]pentaoxacyclodocosin, 10,11,13,14,16,17,19,20-octahydro-
Formula: C35H34O5
CAS: 81854-68-4
Molecular weight: 534
m/z	intensity
26	2
27	20
29	43
30	7
31	43
39	5
40	5
41	19
42	6
43	61
44	20
45	999
46	35
47	4
54	14
56	10
57	22
58	7
59	28
61	5
67	4
68	2
69	10
70	5
71	11
72	2
73	33
74	8
75	4
77	3
81	5
82	2
83	8
84	3
85	4
86	35
87	4
89	810
90	51
91	18
95	4
96	2
97	6
98	3
99	4
103	2
111	3
113	3
115	2
117	8
125	3
133	267
134	21
135	4
137	5
138	13
144	7
145	5
149	21
150	63
151	37
152	10
156	24
157	54
158	11
162	86
163	241
164	60
165	24
168	58
169	81
171	604
178	220
179	70
181	24
183	3
190	5
191	4
197	2
198	2
200	3
219	2
226	2
237	3
239	3
250	4
252	7
253	2
261	3
263	7
264	3
265	7
266	2
274	6
275	3
276	11
277	5
278	2
279	2
285	4
286	3
287	14
288	6
289	30
291	10
292	4
298	8
299	7
300	42
301	24
302	40
303	23
304	7
311	15
312	11
313	87
314	52
315	61
316	23
317	13
318	4
322	6
323	7
324	48
325	48
326	166
327	144
328	84
329	101
330	51
331	12
332	3
335	4
336	4
337	42
338	33
339	94
340	88
341	120
342	384
343	257
344	85
345	16
346	3
351	2
352	3
353	12
354	18
355	98
357	273
358	202
359	68
360	11
367	4
368	8
369	16
370	16
371	31
372	20
373	15
374	6
383	7
384	73
385	32
386	9
401	6
402	14
403	5
415	2
416	14
417	5
418	2
430	3
446	5
447	7
448	2
489	3
490	2
504	2
534	583
535	271
536	66
537	11
