Mass Spectrum: Spiro[tetrahydrofuran-3,5'-hydantoin]
Formula: C6H8N2O3
CAS: 81866-98-0
Molecular weight: 156
m/z	intensity
41	193
42	103
43	211
44	264
45	26
47	52
49	2
51	1
52	81
54	850
55	999
56	42
57	21
58	7
60	4
61	2
62	2
63	6
64	1
65	2
66	1
67	1
68	20
69	1
70	92
71	6
73	4
75	1
77	2
78	3
80	2
81	4
82	11
83	23
84	7
86	8
88	13
89	1
90	4
95	3
96	7
97	1
98	13
99	1
100	1
106	1
109	5
112	43
113	10
114	2
117	1
125	1
126	666
127	28
128	7
129	4
139	1
141	1
154	4
155	11
156	14
157	1
