Mass Spectrum: 5-Nitro-4-acetamido-1,2-methylenedioxybenzene
Formula: C9H8N2O5
CAS: 81864-14-4
Molecular weight: 224
m/z	intensity
42	158
43	999
44	50
45	4
46	4
47	9
48	6
49	64
50	162
51	161
52	356
53	204
54	89
55	46
56	8
57	3
60	2
61	31
62	54
63	41
64	75
65	78
66	38
67	95
68	103
69	24
70	21
71	2
73	1
74	3
75	41
76	108
77	91
78	113
79	82
80	192
81	22
82	8
83	8
84	25
86	17
87	1
88	8
89	5
90	9
91	12
92	15
93	17
94	34
95	12
96	3
97	1
102	1
103	1
104	11
105	17
106	175
107	38
108	11
109	51
110	4
111	1
118	1
119	10
120	12
121	27
122	63
123	20
124	23
125	1
132	0
134	48
135	3
136	684
137	91
138	7
139	0
146	1
147	4
148	27
149	10
150	7
151	13
152	387
153	28
154	2
161	1
162	8
163	5
164	2
165	49
166	41
167	3
176	9
177	1
178	693
179	76
180	9
181	5
182	924
183	91
184	11
192	2
195	1
208	3
209	1
224	420
225	36
226	6
