Mass Spectrum: Cyclopentanecarboxylic acid, 2-hydroxy-
Formula: C6H10O3
CAS: 81887-89-0
Molecular weight: 130
m/z	intensity
26	20
27	284
28	95
29	202
31	75
39	199
40	37
41	198
42	49
43	100
44	33
45	63
55	507
56	75
57	174
58	293
67	161
68	169
69	24
70	52
73	999
74	46
83	45
84	94
86	117
102	135
112	29
