Mass Spectrum: 2-Butenamide, 2-methyl-N-phenyl-
Formula: C11H13NO
CAS: 81896-23-3
Molecular weight: 175
m/z	intensity
23	0
25	0
26	7
27	89
28	4
29	18
30	4
34	1
35	0
37	3
38	12
39	118
40	13
41	22
42	6
43	45
44	14
50	13
51	47
52	13
53	49
54	33
55	999
56	46
57	21
58	2
60	5
61	15
62	3
63	14
64	11
65	57
66	34
67	11
68	3
69	22
70	12
71	24
72	5
73	5
74	2
75	3
76	5
77	59
78	10
79	6
80	3
81	14
82	18
83	929
84	49
85	9
86	4
87	1
88	1
89	2
90	1
91	3
92	22
93	168
94	15
95	12
96	4
97	15
98	2
99	3
103	3
104	4
105	7
106	6
107	3
108	1
109	9
110	2
111	10
112	1
113	1
115	2
116	1
117	5
118	7
120	9
121	6
122	1
123	5
124	2
125	4
126	1
127	1
128	2
129	2
130	6
131	10
132	7
133	3
134	1
135	1
137	2
139	2
142	2
143	1
144	2
146	14
147	12
158	8
159	3
160	37
161	5
162	0
163	3
174	4
175	313
176	39
177	4
