Mass Spectrum: Methane, bis(trifluoromethylthio)-
Formula: C3H2F6S2
CAS: 819-67-0
Molecular weight: 216
m/z	intensity
45	170
46	137
47	9
48	7
50	9
63	107
64	9
65	9
69	560
76	16
77	12
78	104
80	9
82	24
101	16
113	4
114	9
115	999
116	37
117	57
146	4
147	19
148	1
149	2
216	230
217	9
218	18
