Mass Spectrum: Ethyl methanesulfinate
Formula: C3H8O2S
CAS: 819-75-0
Molecular weight: 108
m/z	intensity
26	24
27	369
28	990
29	990
30	53
31	92
33	14
34	19
40	121
42	14
43	91
44	11
45	166
46	39
47	77
48	42
49	13
50	23
63	849
64	56
65	452
67	20
79	17
80	999
81	31
82	51
92	23
93	266
94	27
95	14
108	525
109	24
110	27
