Mass Spectrum: 1H,5H-Pyrazolo[1,2-a][1,2,4]triazole-1,3,5(2H)-trione, 6,7-dimethyl-2-phenyl-
Formula: C13H11N3O3
CAS: 81911-96-8
Molecular weight: 257
m/z	intensity
25	0
26	22
27	141
28	76
29	2
30	0
36	1
37	8
38	31
39	253
40	28
41	50
42	54
43	8
44	0
45	0
48	0
49	1
50	20
51	57
52	44
53	93
54	999
55	42
56	11
57	0
58	0
59	0
61	1
62	7
63	40
64	102
65	27
66	8
67	10
68	13
69	10
70	38
71	1
73	0
74	0
75	2
76	3
77	15
78	1
79	0
80	2
81	6
82	259
83	35
84	1
86	0
87	0
88	1
89	1
90	11
91	121
92	8
93	1
94	1
95	3
96	5
97	0
103	0
104	0
105	0
106	0
107	0
108	1
109	2
110	34
111	2
112	0
117	0
118	0
119	68
120	5
121	0
124	1
129	1
133	0
134	0
136	0
137	13
138	671
139	44
140	4
144	0
145	0
146	39
147	2
148	0
180	0
185	0
186	0
214	0
215	1
227	0
255	1
256	2
257	437
258	61
259	6
260	0
