Mass Spectrum: 7-Hydroxy-7,7-diphenylhept-4-en-2-one
Formula: C19H20O2
CAS: 81912-08-5
Molecular weight: 280
m/z	intensity
26	2
27	18
28	8
29	10
38	2
39	26
40	3
41	18
42	7
43	182
44	10
45	4
50	14
51	65
52	9
53	16
54	6
55	23
56	5
57	14
62	3
63	13
64	3
65	15
66	3
67	5
68	2
69	10
70	6
71	11
74	7
75	8
76	22
77	406
78	44
79	9
81	9
82	4
83	13
84	4
85	4
86	3
87	7
88	3
89	15
90	4
91	90
92	9
93	3
94	6
95	12
96	22
97	7
98	16
99	3
100	6
101	6
102	12
103	22
104	9
105	999
106	81
107	8
108	2
109	4
111	3
112	4
113	6
114	3
115	55
116	15
117	19
118	6
119	4
126	6
127	12
128	17
129	14
130	3
131	5
139	11
140	4
141	24
142	8
143	7
144	7
145	7
149	23
150	6
151	12
152	37
153	19
154	14
155	7
157	4
159	4
161	71
162	10
163	8
164	8
165	71
166	16
167	23
168	6
169	3
176	9
177	7
178	42
179	34
180	107
181	51
182	52
183	890
184	136
185	13
186	4
187	2
189	10
190	6
191	13
192	8
193	13
194	9
195	5
196	33
197	7
200	2
201	5
202	14
203	96
204	60
205	22
206	4
207	12
208	7
209	5
217	7
218	9
219	50
220	13
221	3
233	2
234	2
251	3
262	34
263	8
279	2
280	1
