Mass Spectrum: Cobalt, (.eta.5-2,4-cyclopentadien-1-yl)[(3,4-.eta.)-4,5-diethyl-1,2,2,3-tetramethyl-1-aza-2-sila-5-boracyclopent-3-ene-B5,N1]-
Formula: C15H27BCoNSi
CAS: 81923-58-2
Molecular weight: 319
m/z	intensity
26	10
27	47
29	36
31	27
37	10
39	124
40	52
41	67
42	15
43	198
44	17
45	89
51	29
53	32
54	53
55	43
56	23
57	32
58	35
59	800
60	57
61	20
63	11
65	45
66	20
67	101
68	167
69	182
70	113
71	119
72	23
73	161
74	23
77	15
78	10
79	22
80	23
81	67
82	69
83	546
84	337
85	176
86	41
87	98
88	38
89	11
91	15
92	18
93	101
94	24
95	123
96	50
97	598
98	289
99	119
100	30
101	110
102	29
103	33
106	9
107	48
108	48
109	237
110	78
111	279
112	147
113	33
114	15
117	95
118	10
119	10
120	11
121	33
122	48
123	193
124	999
125	476
126	75
127	106
128	41
129	16
131	18
134	15
135	20
136	32
137	191
138	171
139	58
140	14
141	39
142	60
143	24
144	16
148	10
149	10
150	24
151	59
152	199
153	26
154	27
155	30
156	22
157	15
158	12
162	12
163	14
164	27
165	46
166	155
167	49
168	26
169	16
170	11
177	12
178	15
179	17
180	42
181	42
182	49
183	19
184	13
189	20
190	11
191	22
192	40
193	23
194	36
195	22
196	18
201	9
204	10
205	17
206	30
207	30
208	22
209	13
217	15
218	13
219	38
220	27
221	62
222	20
223	25
230	22
231	22
232	45
233	78
234	25
235	29
236	10
245	9
246	14
247	28
248	28
249	24
250	22
251	12
262	18
286	9
287	13
288	17
289	50
290	148
291	31
292	11
302	11
303	35
304	79
305	27
315	8
316	13
317	45
318	101
319	385
320	96
321	19
