Mass Spectrum: trans-(2-Decenyl)succinic anhydride
Formula: C14H22O3
CAS: 81949-64-6
Molecular weight: 238
m/z	intensity
14	2
15	12
16	1
17	4
18	14
25	1
26	23
27	379
28	41
29	433
30	9
31	2
37	2
38	9
39	299
40	60
41	999
42	179
43	965
44	33
45	9
47	2
50	10
51	40
52	31
53	203
54	562
55	685
56	308
57	220
58	9
59	3
60	10
61	5
62	2
63	9
64	3
65	69
66	76
67	553
68	385
69	403
70	140
71	89
72	33
73	21
74	5
75	2
76	2
77	97
78	30
79	352
80	140
81	500
82	285
83	469
84	83
85	41
86	22
87	5
88	1
89	2
90	2
91	65
92	28
93	138
94	134
95	328
96	266
97	155
98	60
99	115
100	272
101	19
102	6
103	9
104	6
105	41
106	15
107	124
108	109
109	202
110	289
111	96
112	35
113	28
114	10
115	6
116	3
117	45
118	11
119	39
120	10
121	99
122	48
123	184
124	59
125	38
126	27
127	27
128	184
129	19
130	4
131	36
132	10
133	20
134	9
135	65
136	68
137	137
138	107
139	37
140	54
141	233
142	69
143	9
144	3
145	22
146	5
147	9
148	10
149	71
150	43
151	37
152	19
153	26
154	132
155	51
156	10
157	6
158	2
159	8
160	5
161	9
162	3
163	70
164	66
165	42
166	21
167	357
168	73
169	11
170	2
171	1
172	1
173	5
174	7
175	44
176	9
177	48
178	39
179	11
180	6
181	83
182	20
183	6
184	1
187	1
189	1
190	1
191	34
192	28
193	57
194	12
195	25
196	14
197	6
198	1
202	2
203	2
204	1
205	8
206	2
207	1
209	31
210	8
211	1
219	4
220	48
221	12
222	2
223	4
224	1
237	3
238	241
239	38
240	5
