Mass Spectrum: trans-(2-Octenyl)succinic anhydride
Formula: C12H18O3
CAS: 81949-84-0
Molecular weight: 210
m/z	intensity
12	1
14	4
15	16
16	2
17	2
18	7
25	2
26	32
27	384
28	42
29	502
30	10
31	3
32	3
36	1
37	4
38	14
39	334
40	61
41	999
42	250
43	204
44	24
45	9
46	1
47	3
49	1
50	17
51	48
52	38
53	201
54	802
55	728
56	152
57	183
58	9
59	2
60	10
61	4
62	4
63	12
64	4
65	63
66	79
67	579
68	438
69	357
70	142
71	116
72	54
73	26
74	6
75	3
76	2
77	83
78	27
79	337
80	127
81	601
82	352
83	446
84	59
85	22
86	29
87	4
88	1
89	2
90	1
91	60
92	20
93	122
94	103
95	277
96	121
97	170
98	45
99	138
100	361
101	23
102	6
103	6
104	4
105	27
106	11
107	107
108	100
109	115
110	267
111	51
112	41
113	24
114	8
115	4
116	2
117	48
118	8
119	18
120	25
121	93
122	47
123	160
124	46
125	38
126	25
127	23
128	130
129	17
130	4
131	19
132	8
133	11
134	3
135	50
136	43
137	93
138	31
139	29
140	37
141	138
142	35
143	5
144	1
145	11
146	15
147	97
148	14
149	64
150	36
151	13
152	3
153	14
154	68
155	23
156	4
158	1
159	2
160	1
162	2
163	81
164	49
165	61
166	14
167	387
168	65
169	9
170	1
174	2
175	1
176	1
177	10
178	2
179	1
180	1
181	56
182	10
183	2
191	3
192	57
193	9
194	2
195	5
196	1
207	1
208	1
209	3
210	282
211	41
212	5
