Mass Spectrum: 2-(1-Non-8-enyl)-5-(1-hex-5-enyl).delta.1--pyrroline
Formula: C19H33N
CAS: 81943-75-1
Molecular weight: 275
m/z	intensity
41	713
42	102
43	125
46	22
48	18
51	22
52	71
53	110
54	322
55	509
56	60
58	13
59	21
62	14
63	16
64	20
65	55
66	22
67	375
68	211
74	59
78	109
80	267
82	999
84	31
85	42
86	13
87	29
89	16
93	142
94	248
95	220
96	312
98	57
99	34
102	17
104	28
106	39
108	442
109	65
110	92
111	116
112	24
114	32
116	25
118	14
119	45
121	27
122	241
123	63
124	109
126	49
127	17
129	21
132	50
135	24
136	669
137	743
138	116
140	38
142	41
143	21
144	15
145	21
146	40
147	69
152	39
157	31
158	32
159	37
160	30
161	29
162	14
164	298
165	969
166	49
168	23
172	25
173	19
174	14
176	23
177	21
178	937
179	156
182	13
184	13
186	15
187	30
190	41
191	108
192	517
195	13
197	30
200	19
202	15
203	29
204	36
205	57
210	33
218	136
219	26
222	33
223	13
224	15
227	16
228	15
230	27
232	105
233	28
234	529
235	85
236	30
237	16
238	27
242	13
245	13
246	58
247	37
248	30
249	13
251	14
253	20
254	16
255	20
258	13
260	34
272	15
273	24
274	36
275	19
