Mass Spectrum: (1R,7S,E)-7-Isopropyl-4,10-dimethylenecyclodec-5-enol
Formula: C15H24O
CAS: 81968-62-9
Molecular weight: 220
m/z	intensity
27	94
29	109
30	3
31	19
38	5
39	218
40	47
41	604
42	54
43	470
44	31
45	18
50	14
51	78
52	41
53	256
54	45
55	483
56	44
57	100
58	9
59	12
62	5
63	32
64	16
65	227
66	72
67	479
68	63
69	327
70	41
71	51
72	5
75	6
76	8
77	536
78	151
79	730
80	126
81	476
82	90
83	129
84	28
85	46
87	3
89	14
90	5
91	857
92	149
93	562
94	113
95	321
96	154
97	119
98	38
99	10
101	3
102	12
103	103
104	71
105	586
106	295
107	552
108	140
109	999
110	171
111	61
112	11
115	155
116	68
117	468
118	117
119	379
120	117
121	341
122	318
123	252
124	69
125	11
127	22
128	72
129	113
130	47
131	414
132	118
133	278
134	86
135	310
136	163
137	85
138	16
139	10
141	22
142	21
143	39
144	56
145	191
146	64
147	87
148	23
149	159
150	31
151	35
152	9
153	4
157	19
158	17
159	689
160	105
161	84
162	21
163	38
164	30
165	18
166	4
171	3
173	27
174	25
175	15
176	23
177	216
178	30
179	6
187	110
188	15
189	8
191	19
192	32
201	3
202	146
203	20
205	61
206	11
219	4
220	245
221	35
222	3
