Mass Spectrum: 1,3,3-Trimethyl-6-hydroxy-2-oxabicyclo[2.2.2]octan-7-one
Formula: C10H16O3
CAS: 81968-80-1
Molecular weight: 184
m/z	intensity
41	505
42	26
43	917
44	36
45	15
53	78
54	17
55	271
56	58
57	88
59	56
67	93
68	57
69	999
70	174
71	154
74	551
81	167
82	88
83	283
85	177
86	66
87	121
95	445
96	68
97	145
98	96
99	36
109	155
111	39
112	113
113	95
114	28
123	119
124	39
125	46
126	11
127	24
140	21
141	31
156	71
166	32
167	19
184	538
185	74
