Mass Spectrum: Trifluoroacetaldehyde phenylhydrazone
Formula: C8H7F3N2
CAS: 81963-42-0
Molecular weight: 188
m/z	intensity
13	2
14	0
15	2
17	0
18	5
19	1
20	1
25	2
26	13
27	42
28	66
29	6
31	26
32	11
33	6
37	43
38	104
39	330
40	38
41	24
42	5
43	3
44	13
45	5
50	131
51	271
52	63
53	7
54	3
57	1
60	8
61	22
62	45
63	161
64	154
65	977
66	78
67	3
68	1
69	88
70	1
71	3
73	7
74	26
75	17
76	1
77	411
78	33
79	2
82	4
83	6
84	3
86	1
87	3
88	5
89	4
90	21
91	168
92	999
93	72
94	6
95	2
96	1
99	0
101	3
102	3
105	78
106	6
107	1
108	0
109	42
110	4
111	1
112	1
114	2
119	376
120	34
121	1
122	1
127	14
128	1
129	2
138	0
139	3
140	2
141	9
142	43
143	3
149	34
150	4
159	16
160	1
167	16
168	57
169	32
170	3
185	1
188	620
189	62
190	2
