Mass Spectrum: .beta.-d-Gulofuranosyl bromide, cyclic 2,3:5,6-bis(ethylboronate)
Formula: C10H17B2BrO5
CAS: 81975-74-8
Molecular weight: 318
m/z	intensity
26	27
27	120
28	68
29	184
30	3
31	14
32	1
36	1
37	4
38	11
39	133
40	37
41	118
42	82
43	232
44	15
45	28
47	0
48	4
49	0
50	5
51	19
52	21
53	70
54	39
55	95
56	46
57	202
58	11
59	19
60	1
61	2
62	13
63	3
64	1
65	11
66	9
67	22
68	81
69	97
70	93
71	45
72	2
73	3
74	0
75	2
76	10
77	8
78	2
79	9
80	5
81	58
82	33
83	103
84	57
85	86
86	13
87	21
88	1
89	1
90	5
91	26
92	2
93	3
94	4
95	13
96	26
97	72
98	356
99	999
100	48
101	7
102	0
103	1
104	0
105	5
106	2
107	7
108	4
109	25
110	86
111	331
112	63
113	103
114	7
115	3
116	0
117	0
118	0
119	9
120	1
121	15
122	4
123	14
124	34
125	43
126	14
127	43
128	4
129	3
130	0
131	1
133	3
134	1
135	6
136	28
137	112
138	17
139	28
140	120
141	283
142	24
143	5
144	0
145	0
146	2
147	17
148	4
149	19
150	2
151	6
152	12
153	41
154	14
155	12
156	2
157	0
159	1
160	1
161	5
162	1
163	5
164	13
165	52
166	9
167	8
168	3
169	2
170	0
171	1
172	0
175	1
176	1
177	2
178	1
179	2
180	5
181	10
182	8
183	17
184	2
185	1
188	0
189	1
190	1
191	3
192	1
193	2
194	1
195	3
196	8
197	12
198	1
199	0
201	0
202	3
203	6
204	4
205	7
206	1
207	4
208	24
209	50
210	13
211	4
212	0
216	0
218	1
219	6
220	8
221	17
222	4
223	1
225	0
227	0
232	0
233	1
234	0
235	1
236	2
237	16
238	82
239	137
240	18
241	2
242	0
244	0
245	1
246	0
247	1
253	0
257	0
258	1
259	1
260	1
261	0
267	0
281	0
288	0
289	1
290	0
291	0
