Mass Spectrum: Naphthalene, 1,2,3,4,5,6-hexahydro-1,1,6-trimethyl-
Formula: C13H20
CAS: 81983-68-8
Molecular weight: 176
m/z	intensity
27	110
29	110
39	160
41	290
42	50
43	240
45	30
50	30
51	90
52	40
53	120
54	30
55	160
56	60
57	70
58	70
63	60
64	50
65	110
66	30
67	100
69	100
77	210
78	80
79	140
81	180
82	40
83	40
91	999
92	200
93	160
94	60
95	90
103	100
104	80
105	610
106	430
107	220
108	50
109	110
110	100
115	120
116	70
117	110
118	50
119	230
120	150
121	40
127	40
128	80
129	70
130	40
131	90
132	30
133	100
137	40
160	60
161	390
162	80
176	210
177	60
