Mass Spectrum: Cyclohexane, 2-propyl-1,1,3-trimethyl-
Formula: C12H24
CAS: 81983-70-2
Molecular weight: 168
m/z	intensity
27	100
29	330
30	10
39	180
41	910
42	140
43	500
50	10
51	20
52	10
53	110
54	40
55	940
56	910
57	480
58	20
65	20
66	10
67	110
68	70
69	999
70	650
71	120
77	30
78	10
79	30
81	60
82	40
83	360
84	150
85	50
91	20
93	10
95	40
96	20
97	150
98	100
99	30
107	10
109	10
110	10
111	100
112	30
126	40
127	70
128	10
153	60
154	10
168	80
169	10
