Mass Spectrum: Pyrrol-2-one-5-propionic acid, methyl(ester)
Formula: C8H13NO3
CAS: 81980-11-2
Molecular weight: 171
m/z	intensity
41	143
42	41
43	47
44	19
45	11
46	0
47	4
48	3
49	25
50	3
51	14
52	7
53	16
54	41
55	95
56	109
57	23
58	17
59	38
60	3
61	1
62	0
63	2
64	0
65	6
66	6
67	20
68	15
69	47
70	24
71	7
72	4
73	2
74	52
75	3
76	1
77	6
78	15
79	3
80	7
81	9
82	33
83	29
84	999
85	71
86	90
87	12
88	9
89	1
91	1
92	1
93	1
94	6
95	9
96	10
97	47
98	210
99	13
100	12
101	16
102	1
105	1
106	9
107	1
108	1
109	1
110	18
111	20
112	59
113	7
114	3
115	1
116	5
118	0
119	0
120	0
121	2
122	4
123	3
124	12
125	2
126	1
127	0
128	9
129	12
130	0
135	0
137	0
138	7
139	1
140	231
141	19
142	4
143	250
144	21
145	2
148	0
149	0
150	1
152	1
153	2
154	1
156	1
157	0
164	0
165	0
167	0
170	1
171	157
172	41
173	4
174	0
