Mass Spectrum: 1,5-Hexadien-3-yne, 2-methyl-
Formula: C7H8
CAS: 820-54-2
Molecular weight: 92
m/z	intensity
26	47
27	129
37	54
38	104
39	370
40	85
41	37
42	4
43	16
49	33
50	266
51	562
52	14
53	104
61	66
62	125
63	262
64	141
65	331
66	87
73	25
74	12
75	70
76	33
77	162
78	12
85	16
86	20
87	16
89	46
90	41
91	999
92	895
93	62
