Mass Spectrum: Methyl 3-methyl-3-(methoxy-isopropoxy)amino-butanoate
Formula: C10H21NO4
CAS: 82004-48-6
Molecular weight: 219
m/z	intensity
29	306
30	188
31	306
41	257
42	272
43	921
44	211
45	163
54	107
55	137
56	817
57	155
58	452
59	127
72	89
73	999
74	364
87	290
88	81
98	82
99	35
100	109
101	45
114	55
115	397
116	54
146	26
166	18
177	17
189	17
