Mass Spectrum: Methyl 3-methyl-3-(methoxymethyl)amino-butanoate
Formula: C8H17NO3
CAS: 82004-58-8
Molecular weight: 175
m/z	intensity
55	99
56	157
57	74
59	58
60	41
61	585
62	48
70	41
71	82
72	33
73	41
74	73
83	109
84	50
85	42
86	24
88	32
102	999
103	107
104	42
115	100
116	32
129	83
130	41
144	41
160	217
161	42
175	283
176	83
