Mass Spectrum: Methyl 3-methyl-3-(methoxy-tert-butyloxy)amino-butanoate
Formula: C11H23NO4
CAS: 82004-49-7
Molecular weight: 233
m/z	intensity
29	81
30	82
31	44
41	170
42	80
43	117
55	127
56	233
57	771
58	92
59	90
73	999
74	190
83	235
84	18
86	26
87	54
88	55
101	54
115	634
116	90
117	44
129	81
146	335
147	82
148	44
160	18
167	18
178	17
