Mass Spectrum: [3AR-(3AR*,5E,9Z,11aS*)]-7.alpha.-hydroxy-2,3,3a,4,7,8,11,11a-octahydro-6-methyl-3-methylene-2-oxocyclodeca(b)furan-10-carboxylic acid 7,10-lactone
Formula: C15H16O4
CAS: 82003-39-2
Molecular weight: 260
m/z	intensity
53	999
55	830
81	670
91	300
105	370
124	190
131	220
136	530
137	250
161	140
203	240
205	120
216	200
232	70
242	120
260	170
