Mass Spectrum: 5H-[1,3,4]-Thiadiazolo[3,2-a]quinazolin-5-one, 2-benzoyl-
Formula: C16H9N3O2S
CAS: 82000-27-9
Molecular weight: 307
m/z	intensity
33	0
34	0
37	47
38	81
39	118
41	6
42	3
43	6
44	7
45	11
46	6
47	3
50	323
51	339
52	28
53	19
54	9
55	1
58	28
59	5
60	7
61	20
62	67
63	138
64	66
65	18
66	3
67	2
69	9
70	8
72	8
74	115
75	81
77	999
78	33
80	1
81	1
82	2
83	1
84	5
86	26
87	10
88	18
89	55
90	82
92	12
93	2
94	1
95	2
96	1
97	0
98	1
99	3
101	10
102	25
105	856
106	37
108	2
109	0
110	0
112	0
113	0
114	2
116	44
118	2
119	2
120	4
121	2
122	4
124	0
126	1
127	0
128	0
129	0
130	5
131	2
132	0
133	1
134	2
135	1
136	1
138	0
139	0
141	0
142	2
144	53
145	4
146	1
147	1
148	2
149	0
150	2
151	0
152	0
153	0
154	2
159	0
161	0
162	1
163	0
164	0
165	0
167	0
173	0
174	5
175	1
176	1
178	1
179	0
180	0
192	0
201	0
202	2
203	0
204	0
205	2
206	0
220	0
221	0
276	0
277	1
279	14
280	2
281	1
300	0
301	0
302	2
304	8
305	10
307	280
308	46
309	15
310	1
311	0
