Mass Spectrum: Methanesulfonyloxyphenylacetic acid, methyl ester
Formula: C10H12O5S
CAS: 82027-15-4
Molecular weight: 244
m/z	intensity
33	1
34	2
36	0
37	1
38	9
39	46
40	7
41	6
42	1
43	4
44	3
45	8
46	1
47	1
48	4
49	4
50	34
51	140
52	34
53	6
54	0
55	2
56	1
57	4
58	11
59	60
60	1
61	2
62	23
63	55
64	24
65	22
66	2
67	1
68	1
69	2
70	1
71	2
72	1
73	1
74	5
75	8
76	15
77	363
78	67
79	405
80	15
81	14
83	1
84	1
85	1
86	2
87	2
88	6
89	78
90	99
91	77
92	7
93	14
94	15
95	6
96	1
97	1
98	1
99	1
100	0
102	0
103	1
104	6
105	303
106	44
107	999
108	79
109	5
111	1
112	1
118	44
119	5
120	2
121	171
122	17
123	1
125	3
126	0
127	0
132	1
133	5
134	1
135	1
136	1
137	1
147	1
148	1
149	93
150	9
151	1
152	0
157	6
165	119
166	12
167	1
176	2
177	1
184	1
185	667
186	66
187	37
188	2
212	39
213	4
214	2
244	4
