Mass Spectrum: Ethanone, 1,2-diphenyl-2-(2,2,2-trifluoroethoxy)-
Formula: C16H13F3O2
CAS: 82027-52-9
Molecular weight: 294
m/z	intensity
26	4
27	11
28	21
29	8
31	4
32	2
33	8
36	1
37	1
38	4
39	20
40	2
41	3
43	3
44	2
45	3
49	1
50	27
51	119
52	15
53	2
55	2
56	3
57	3
61	2
62	4
63	15
64	7
65	7
66	2
67	1
69	3
70	1
71	1
73	1
74	6
75	7
76	14
77	353
78	37
79	54
80	4
81	1
82	3
83	30
84	1
87	1
88	2
89	19
90	17
91	31
92	3
94	1
95	1
97	1
101	2
102	1
104	3
105	999
106	85
107	14
108	1
109	48
110	4
111	2
115	4
116	1
118	3
119	1
121	1
122	20
123	2
126	1
127	1
128	2
135	1
139	3
141	3
150	1
151	2
152	12
153	2
163	2
164	2
165	24
166	8
167	50
168	10
169	9
170	1
176	1
178	7
179	1
181	1
182	1
188	1
189	441
190	44
191	2
194	1
195	10
196	2
205	1
294	4
