Mass Spectrum: 3-Hexene, 2,4-dimethyl-
Formula: C8H16
CAS: 82085-14-1
Molecular weight: 112
m/z	intensity
27	132
29	109
39	155
40	22
41	356
42	34
43	113
44	15
50	11
51	22
52	11
53	64
54	11
55	999
56	102
57	37
65	15
67	45
68	7
69	166
70	49
77	15
79	22
81	41
82	11
83	746
84	53
95	7
97	166
98	11
112	204
113	18
