Mass Spectrum: 4,5-Nonadiene
Formula: C9H16
CAS: 821-74-9
Molecular weight: 124
m/z	intensity
39	250
40	50
41	500
42	50
43	100
50	30
51	70
52	50
53	220
54	290
55	440
56	60
57	10
65	90
66	40
67	999
68	240
69	50
77	90
78	10
79	130
80	50
81	520
82	310
83	50
91	50
93	70
95	490
96	470
97	40
105	1
107	1
109	20
110	1
123	1
124	20
125	1
