Mass Spectrum: Tetradecanedioic acid
Formula: C14H26O4
CAS: 821-38-5
Molecular weight: 258
m/z	intensity
26	4
27	111
28	19
29	205
30	7
31	22
36	2
39	68
40	2
41	430
42	72
43	233
44	28
45	70
46	0
47	3
51	3
52	0
53	27
54	37
55	482
56	72
57	171
58	13
59	37
60	353
61	51
62	1
65	6
66	5
67	81
68	60
69	253
70	51
71	87
72	4
73	480
74	47
75	3
77	6
78	3
79	29
80	29
81	84
82	49
83	173
84	618
85	79
86	6
87	82
88	11
89	1
91	9
92	2
93	27
94	30
95	57
96	51
97	136
98	999
99	92
100	11
101	46
102	15
103	0
105	4
106	1
107	22
108	36
109	25
110	30
111	64
112	259
113	29
114	8
115	87
116	18
117	1
119	8
120	7
121	34
122	10
123	21
124	23
125	32
126	45
127	7
128	0
129	150
130	31
131	3
133	4
134	4
135	14
136	8
137	16
138	24
139	22
140	12
141	2
142	1
143	42
144	7
147	3
148	1
149	5
150	4
151	9
152	16
153	6
154	13
155	3
156	7
157	35
158	4
161	1
162	7
163	34
164	4
165	7
166	7
167	2
168	1
170	0
171	89
172	10
175	0
176	3
178	3
179	6
180	9
181	30
182	3
183	1
184	5
185	40
186	5
193	0
194	21
195	3
196	3
197	3
198	3
199	4
204	3
214	298
215	43
216	3
221	3
222	112
223	17
240	45
241	14
242	0
258	2
259	2
