Mass Spectrum: 2-Aminobutanoic acid, TBMS derivative
Formula: C16H37NO2Si2
CAS: 82112-33-2
Molecular weight: 331
m/z	intensity
39	33
41	176
42	14
43	58
44	23
45	120
46	11
47	32
52	2
53	4
54	7
55	26
56	49
57	196
58	93
59	220
60	34
61	22
62	1
66	10
67	3
68	5
69	6
70	6
71	7
73	999
74	104
75	152
76	10
77	5
79	2
81	1
82	4
83	4
84	6
85	19
86	31
87	9
88	5
89	2
93	3
94	10
96	2
97	4
98	22
99	15
100	33
101	19
102	9
103	58
104	6
105	4
108	5
112	2
113	2
114	48
115	65
116	35
117	30
118	9
119	14
120	1
126	1
128	13
129	13
130	7
131	16
132	61
133	107
134	19
135	10
142	30
143	9
144	6
145	11
147	359
148	63
149	35
150	4
156	8
157	2
158	5
159	4
160	35
161	7
162	3
170	7
172	764
173	117
174	39
175	6
176	1
184	2
188	5
189	20
190	4
202	11
203	1
216	6
217	2
218	2
244	4
246	427
247	100
248	38
249	5
272	1
274	269
275	60
276	25
277	4
288	15
289	5
302	14
303	4
316	16
317	5
