Mass Spectrum: 3-Picolinyl stearate
Formula: C24H41NO2
CAS: 82120-89-6
Molecular weight: 375
m/z	intensity
82	36
83	64
84	8
85	49
91	43
92	916
93	600
94	62
95	12
97	17
98	2
106	6
107	23
108	999
109	430
110	79
111	8
120	6
121	2
134	2
148	6
149	2
151	686
152	55
153	2
163	4
164	976
165	103
166	2
176	2
177	2
178	137
179	32
190	4
191	2
192	34
193	8
204	4
206	133
207	23
220	75
221	10
234	98
235	15
246	4
248	150
249	27
260	4
262	154
263	30
265	4
273	4
275	2
276	159
277	27
288	2
290	178
291	32
303	2
304	137
305	19
316	4
318	135
319	27
332	90
333	19
346	53
360	10
374	15
375	53
376	6
