Mass Spectrum: (Pyrid-3-yl)methyl octadec-9-enoate
Formula: C24H39NO2
CAS: 82120-92-1
Molecular weight: 373
m/z	intensity
39	189
40	73
41	588
42	116
43	494
44	59
45	10
50	11
51	22
52	19
53	73
54	168
55	633
56	106
57	189
58	17
63	22
64	27
65	211
66	39
67	210
68	73
69	305
70	63
71	73
72	4
73	10
77	21
78	22
79	52
80	52
81	126
82	42
83	149
84	26
85	41
91	59
92	999
93	563
94	73
95	82
96	22
97	100
101	4
105	10
106	21
107	26
108	672
109	334
110	105
111	43
112	4
113	4
115	4
117	2
118	17
119	11
120	12
121	21
122	2
123	32
124	2
125	17
126	2
127	2
129	2
130	2
131	2
132	2
133	17
134	15
135	11
136	2
137	11
138	2
139	6
140	2
141	2
143	2
144	4
145	2
146	11
147	15
148	17
149	6
150	2
151	261
152	27
153	2
163	4
164	572
165	105
166	10
167	2
175	4
176	2
177	10
178	105
179	31
180	2
181	4
190	10
191	10
192	31
193	17
194	2
204	31
205	4
206	84
207	52
208	4
209	2
218	4
219	2
220	107
221	34
230	2
231	2
232	10
233	2
234	42
235	4
239	2
244	2
245	2
246	23
247	21
248	19
249	2
253	10
256	8
260	63
261	31
262	4
263	2
265	2
270	10
271	2
274	231
275	80
276	17
288	254
289	69
290	10
302	52
303	19
316	52
317	10
330	59
331	17
344	42
345	10
358	10
359	2
371	4
372	52
373	241
374	73
375	14
