Mass Spectrum: Methyl 3-(methylamino)-2-(2-thienylcarbonyl)but-2-enoate
Formula: C11H13NO3S
CAS: 82140-49-6
Molecular weight: 239
m/z	intensity
33	38
36	4
37	11
38	43
39	231
40	126
41	55
42	70
44	131
45	46
50	8
51	12
52	29
53	27
54	58
56	999
57	51
58	21
59	18
63	8
64	3
65	8
66	15
67	53
68	20
69	37
70	11
71	2
77	22
78	3
79	4
80	1
82	72
83	56
84	11
91	8
93	3
95	20
96	38
98	50
99	18
106	5
109	10
111	402
112	23
113	16
118	6
119	16
120	3
122	48
123	21
124	17
134	6
135	15
136	9
137	8
146	11
148	62
149	14
150	39
151	39
152	5
156	15
164	32
165	1
174	59
175	1
178	20
179	46
180	49
181	52
182	1
206	156
207	126
208	35
209	6
222	45
238	97
239	138
240	21
