Mass Spectrum: 4-Propyl-2-hydroxycyclopent-2-en-1-one
Formula: C8H12O2
CAS: 82147-26-0
Molecular weight: 140
m/z	intensity
41	320
42	90
43	150
55	160
56	90
69	430
80	110
97	999
98	120
140	180
