Mass Spectrum: 3-[2-(p-Tolyloxy)acetamido]benzoic acid
Formula: C16H15NO4
CAS: 82157-40-2
Molecular weight: 285
m/z	intensity
33	1
34	8
36	3
37	11
38	49
39	263
40	164
41	84
42	50
43	62
44	90
45	42
46	2
48	1
50	69
51	148
52	92
53	104
54	12
55	27
56	7
57	15
58	0
59	2
60	6
61	6
62	35
63	146
64	114
65	605
66	41
67	8
68	6
69	10
70	7
71	8
73	6
74	16
75	37
76	42
77	335
78	100
79	154
80	48
81	25
82	5
83	6
84	3
85	1
86	0
87	2
89	80
90	138
91	999
92	181
93	206
94	24
95	4
96	0
97	4
102	5
103	32
104	80
105	55
106	137
107	350
108	823
109	63
110	6
111	9
112	4
113	1
115	3
116	0
117	4
118	17
119	81
121	700
122	380
123	41
124	2
125	6
126	1
127	1
128	1
129	1
130	2
131	3
132	28
133	21
134	73
135	21
136	54
137	137
138	11
139	2
140	0
141	1
143	17
144	0
146	24
147	7
148	60
149	98
150	936
151	78
152	9
153	2
154	0
155	0
156	1
157	0
159	2
160	18
161	5
162	6
163	9
164	55
165	8
166	4
167	5
168	0
171	5
176	9
177	14
178	50
179	33
180	7
182	0
183	0
194	4
195	1
197	2
212	1
227	15
228	1
240	0
241	1
254	0
266	0
268	10
269	0
282	3
283	9
285	710
286	119
287	14
288	1
