Mass Spectrum: (3-Oxo-1,2-benzothiazol-2-yl)acetic acid
Formula: C9H7NO3S
CAS: 82152-06-5
Molecular weight: 209
m/z	intensity
33	12
36	12
37	58
38	118
39	280
40	51
41	219
42	107
43	34
45	999
46	35
47	8
50	140
51	55
52	15
53	46
54	28
55	21
56	31
57	52
58	69
59	18
60	65
61	28
62	51
63	114
64	28
65	62
66	10
67	20
69	283
70	30
71	29
72	14
73	44
74	61
75	38
76	53
77	15
78	5
81	56
82	106
83	14
84	10
92	14
93	15
95	4
96	3
98	5
104	9
105	7
106	7
108	180
109	67
110	10
126	12
127	4
136	379
137	104
138	24
139	4
150	24
151	6
164	196
165	39
166	9
209	166
210	24
211	8
