Mass Spectrum: (1.alpha.,2.alpha.,3.alpha.)-Dimethyl 1,3-dimethyl-4-cyclohexene-1,2-dicarboxylate
Formula: C12H18O4
CAS: 82166-41-4
Molecular weight: 226
m/z	intensity
15	50
16	5
17	10
18	45
26	10
27	20
28	40
29	5
31	5
39	30
40	10
41	30
43	20
44	10
45	5
50	5
51	20
52	5
53	20
55	10
59	55
63	5
65	30
66	10
67	25
68	10
69	20
78	50
79	10
80	45
81	5
82	5
85	5
91	160
92	30
93	60
94	5
95	5
103	5
105	45
106	130
107	999
108	100
109	10
111	5
119	10
125	15
127	10
131	5
132	5
134	10
135	25
139	5
151	30
152	5
166	275
167	60
168	80
194	75
195	10
196	10
226	10
