Mass Spectrum: (S)-N-(1-Methyl-2-pyrrolidinylmethyl)-1-naphthylamine
Formula: C16H20N2
CAS: 82160-07-4
Molecular weight: 240
m/z	intensity
15	1
27	2
28	7
29	2
30	3
39	4
41	8
42	54
43	3
44	6
50	1
51	3
52	1
53	1
54	2
55	7
56	3
57	2
58	1
63	3
64	1
65	2
67	4
68	2
69	4
70	5
74	1
75	3
76	2
77	8
78	1
80	2
81	2
82	29
83	11
84	999
85	62
86	1
87	1
88	1
89	2
94	1
96	5
97	4
98	1
101	4
102	2
113	1
114	1
115	15
116	4
117	1
126	7
127	21
128	13
129	7
139	1
140	2
141	5
142	2
143	10
144	1
152	1
153	1
154	15
155	9
156	9
157	4
166	1
167	3
168	3
169	1
180	4
181	3
182	1
194	2
204	1
206	2
207	1
232	2
233	5
234	9
235	1
238	2
239	1
240	67
241	12
242	1
