Mass Spectrum: (1.alpha.,2.alpha.,6.beta.)-Dimethyl 1,6-dimethyl-4-cyclohexene-1,2-dicarboxylate
Formula: C12H18O4
CAS: 82166-40-3
Molecular weight: 226
m/z	intensity
14	10
15	195
16	10
17	50
18	130
20	10
26	40
27	50
28	140
29	40
30	10
31	15
32	10
33	10
38	5
39	60
40	15
41	75
42	10
43	25
44	20
45	10
50	10
51	20
52	10
53	30
55	20
58	10
59	80
65	40
66	10
67	20
68	25
69	20
77	50
78	20
79	40
81	5
91	170
92	25
93	45
94	5
103	10
105	40
106	160
107	999
108	85
109	5
119	10
124	5
127	15
131	10
134	10
135	25
138	5
139	10
151	20
152	5
166	280
167	50
168	5
169	5
194	60
195	55
196	10
226	15
