Mass Spectrum: 1,11-Undecanediamine
Formula: C11H26N2
CAS: 822-08-2
Molecular weight: 186
m/z	intensity
15	1
16	4
17	5
18	21
26	2
27	20
28	43
29	28
30	999
31	27
32	2
39	18
40	4
41	84
42	27
43	57
44	349
45	98
46	2
47	3
51	1
52	1
53	8
54	10
55	97
56	116
57	22
58	12
59	51
60	2
65	1
66	1
67	18
68	12
69	62
70	41
71	7
72	50
73	37
74	2
77	1
79	2
80	1
81	12
82	13
83	36
84	30
85	4
86	98
87	26
88	1
93	1
95	9
96	11
97	19
98	16
99	2
100	73
101	12
102	1
109	2
110	7
111	11
112	11
113	2
114	65
115	14
116	1
123	1
124	2
126	4
128	67
129	11
133	1
140	12
141	2
142	98
143	19
144	1
152	1
154	1
156	43
157	173
158	20
159	1
167	1
168	7
169	6
170	145
171	18
172	1
185	14
186	52
187	7
