Mass Spectrum: Hexadecane, 1-(ethenyloxy)-
Formula: C18H36O
CAS: 822-28-6
Molecular weight: 268
m/z	intensity
15	3
26	2
27	70
29	238
30	5
31	32
39	57
40	10
41	591
42	124
43	911
44	82
45	37
53	33
54	58
55	690
56	311
57	999
58	48
59	59
65	7
66	22
67	134
68	182
69	537
70	308
71	480
72	40
73	5
77	3
79	11
80	10
81	108
82	358
83	484
84	180
85	285
86	20
93	1
94	5
95	83
96	183
97	359
98	91
99	52
100	22
109	55
110	61
111	143
112	43
113	12
114	2
122	1
123	38
124	41
125	45
126	20
127	10
128	3
137	22
138	23
139	11
140	12
141	19
151	7
152	11
153	5
154	6
155	5
165	8
166	9
167	1
168	3
179	5
180	6
183	1
193	1
194	9
222	34
223	5
225	1
253	96
254	18
268	13
