Mass Spectrum: (Z)-Methyl hexadec-11-enoate
Formula: C17H32O2
CAS: 822-05-9
Molecular weight: 268
m/z	intensity
27	42
29	100
39	100
41	530
42	121
43	279
45	31
52	10
53	64
54	153
55	999
56	174
57	123
59	128
65	28
66	15
67	239
68	165
69	517
70	121
71	69
73	54
74	443
75	61
77	19
79	56
80	28
81	165
82	128
83	274
84	211
85	44
87	277
88	18
91	26
93	22
95	110
96	200
97	220
98	156
99	24
101	37
102	5
105	44
107	16
108	19
109	85
110	118
111	98
112	47
113	21
114	26
115	42
116	10
119	19
120	7
121	23
122	10
123	84
124	49
125	57
126	10
127	26
128	27
129	18
130	6
133	21
135	32
136	13
137	41
138	67
139	37
141	39
143	25
147	11
148	13
149	16
151	35
152	72
153	20
154	5
155	8
157	7
163	4
165	15
166	13
175	6
179	7
180	8
185	8
192	15
193	15
194	67
195	13
207	16
208	8
218	8
236	88
237	57
238	10
268	15
