Mass Spectrum: 3-Cyclohexen-1-ol
Formula: C6H10O
CAS: 822-66-2
Molecular weight: 98
m/z	intensity
25	0
26	28
27	168
28	64
29	80
30	3
31	44
32	12
33	0
34	0
36	0
37	8
38	28
39	471
40	37
41	170
42	56
43	133
44	168
45	9
46	0
47	2
48	1
49	3
50	34
51	59
52	31
53	128
54	803
55	194
56	25
57	66
58	3
59	0
60	0
61	2
62	6
63	14
64	2
65	35
66	14
67	56
68	13
69	82
70	84
71	5
72	0
73	1
74	4
75	2
76	1
77	76
78	16
79	303
80	999
81	82
82	5
83	87
84	4
85	0
86	0
89	0
90	0
91	0
92	0
93	0
94	2
95	8
96	2
97	22
98	14
99	0
100	0
