Mass Spectrum: Bicyclo[2.2.1]hepta-2,5-dien-7-ol
Formula: C7H8O
CAS: 822-80-0
Molecular weight: 108
m/z	intensity
50	100
51	180
52	80
53	90
54	10
55	20
62	20
63	50
64	20
65	70
75	30
76	10
77	450
78	180
79	999
80	100
81	20
89	50
90	70
91	260
92	60
105	20
106	20
107	470
108	90
