Mass Spectrum: Bicyclo[5.3.0]dec-1(7)-ene-2,5-dione
Formula: C10H12O2
CAS: 82201-37-4
Molecular weight: 164
m/z	intensity
25	50
27	341
28	196
29	38
31	3
37	5
38	30
39	247
40	67
41	90
42	29
43	28
50	76
51	259
52	304
53	157
54	28
55	172
56	34
57	29
58	7
59	3
61	3
62	10
63	47
64	10
65	81
66	36
67	37
68	22
69	6
70	2
71	1
74	8
75	7
76	9
77	290
78	98
79	644
80	236
81	121
82	19
85	10
87	0
89	6
90	10
91	85
92	34
93	91
94	62
95	21
96	0
98	0
100	4
102	0
103	12
104	6
105	31
106	5
107	350
108	999
109	250
110	14
115	8
116	2
117	31
118	22
119	23
120	4
121	130
122	43
123	7
128	0
131	6
132	0
133	3
135	305
136	192
137	15
138	0
145	2
146	2
147	0
149	14
151	2
152	2
163	16
164	777
165	97
166	7
