Mass Spectrum: 1,4-2H-Naphthalene-1,4-dione, 2-chloro-3-[2-isopentenyl]-
Formula: C15H13ClO2
CAS: 82214-83-3
Molecular weight: 260
m/z	intensity
41	844
43	999
44	33
45	14
47	8
48	3
49	43
50	520
51	472
52	79
53	369
55	532
56	38
57	36
58	4
59	93
60	1
61	27
62	79
63	262
64	51
65	176
66	45
67	81
68	4
71	34
72	0
73	83
74	164
75	342
76	660
77	482
78	70
83	20
84	75
85	40
86	53
87	118
88	59
89	102
91	187
92	22
93	15
94	2
95	8
96	8
97	22
98	36
99	115
100	4
101	126
102	51
103	1
104	200
105	266
106	20
107	6
108	6
109	18
110	8
111	66
112	2
113	133
114	106
115	150
116	17
117	6
118	4
119	27
120	0
121	12
122	13
123	24
125	64
126	117
127	145
128	87
129	49
130	7
131	9
132	1
133	228
135	55
136	13
137	22
138	13
139	112
140	18
141	53
142	16
143	35
144	5
145	5
146	5
147	36
148	12
149	71
150	31
151	82
152	285
153	146
154	64
155	101
156	11
157	17
159	21
160	4
161	14
162	20
163	30
164	20
165	150
166	64
167	48
168	33
169	26
171	39
172	7
173	16
174	4
175	14
176	17
177	45
178	71
179	120
180	24
181	192
182	80
183	113
184	22
185	7
186	4
187	4
188	2
189	85
190	1
191	42
192	5
193	11
194	8
195	38
196	15
197	74
198	13
199	18
200	4
205	9
206	28
207	97
208	61
209	121
210	194
211	49
212	7
215	6
217	48
218	57
219	223
220	192
221	29
222	8
223	49
224	62
225	966
226	162
227	28
228	7
229	2
230	5
231	67
232	13
233	24
234	14
235	4
244	5
245	94
246	13
247	31
248	5
249	1
258	1
259	11
260	311
261	61
262	112
263	21
264	3
