Mass Spectrum: 4,4,6-Trimethyl-6-.tert.-butyltetrahydro-1,3-oxazine-2-thione
Formula: C11H21NOS
CAS: 82257-72-5
Molecular weight: 215
m/z	intensity
12	25
13	4
15	111
25	9
26	64
27	255
28	113
29	299
30	144
31	62
32	6
34	2
36	1
37	7
38	14
39	177
40	111
41	699
42	999
43	677
44	105
45	111
46	23
47	7
48	4
50	13
51	18
52	14
53	59
54	34
55	488
56	155
57	892
58	377
59	23
60	51
61	18
62	8
63	3
64	6
65	21
66	10
67	89
68	19
69	210
70	49
71	64
72	10
73	20
74	13
75	7
76	5
77	25
78	13
79	37
80	14
81	76
82	50
83	599
84	133
85	66
86	12
87	5
88	7
89	7
90	6
91	18
92	7
93	19
94	8
95	35
96	19
97	54
98	63
99	321
100	56
101	18
102	13
103	4
104	12
105	11
106	9
107	15
108	10
109	24
110	10
111	14
112	15
113	8
114	2
115	11
116	12
117	10
118	91
119	7
120	5
121	11
122	6
123	74
124	12
125	12
126	16
127	10
138	14
139	177
140	122
141	17
142	8
158	34
159	15
182	11
185	9
215	266
216	40
217	15
