Mass Spectrum: 7-Propylidene-bicyclo[4.1.0]heptane
Formula: C10H16
CAS: 82253-09-6
Molecular weight: 136
m/z	intensity
26	6
27	105
28	20
29	79
37	2
38	13
39	198
40	38
41	273
42	26
43	64
44	3
45	2
50	25
51	93
52	45
53	168
54	69
55	200
56	20
57	86
58	10
59	5
60	2
61	2
62	9
63	35
64	11
65	128
66	75
67	647
68	134
69	48
70	8
71	13
73	6
74	6
75	12
76	7
77	359
78	77
79	999
80	206
81	189
82	85
83	15
84	4
85	11
86	2
87	2
89	8
90	4
91	433
92	62
93	648
94	265
95	204
96	31
97	10
98	2
99	7
101	2
102	3
103	17
104	8
105	86
106	22
107	559
108	220
109	36
110	7
111	4
112	5
113	11
114	2
115	11
116	3
117	9
118	2
119	31
120	7
121	599
122	62
123	6
133	3
134	6
135	19
136	68
137	9
138	1
