Mass Spectrum: 1-(7-Bromobicyclo[4.1.0]hept-7-yl)-1-propanol, TMS derivative
Formula: C13H25BrOSi
CAS: 82253-03-0
Molecular weight: 304
m/z	intensity
26	7
27	82
28	14
29	87
30	2
31	7
37	2
38	6
39	117
40	21
41	181
42	32
43	65
44	27
45	149
46	11
47	51
48	3
49	2
50	9
51	39
52	21
53	95
54	19
55	143
56	10
57	40
58	18
59	53
60	11
61	29
62	5
63	17
64	7
65	82
66	32
67	171
68	27
69	42
70	12
71	12
72	22
73	999
74	105
75	276
76	25
77	148
78	48
79	310
80	48
81	201
82	17
83	14
84	15
85	16
86	2
87	3
89	8
90	3
91	154
92	30
93	244
94	34
95	164
96	14
97	10
98	2
99	10
100	1
101	9
102	2
103	32
104	8
105	107
106	29
107	111
108	14
109	34
110	5
111	10
112	1
113	5
114	1
115	25
116	6
117	13
118	3
119	19
120	5
121	10
122	3
123	37
124	4
125	15
126	1
127	11
128	3
129	47
130	9
131	223
132	28
133	17
134	10
135	325
136	35
137	161
138	14
139	170
140	13
141	18
142	4
143	17
144	3
145	7
146	6
147	3
148	7
149	5
150	2
151	16
152	4
153	9
154	3
155	20
156	7
157	28
158	6
159	9
160	5
161	3
162	2
163	2
164	1
165	8
166	2
167	18
168	11
169	8
170	2
171	2
172	2
173	4
174	2
175	2
176	1
177	1
178	1
179	3
180	1
181	23
182	5
183	20
184	3
185	12
186	4
187	13
188	5
189	1
190	1
191	2
192	1
193	6
194	2
195	63
196	21
197	21
198	4
199	2
200	1
201	2
202	1
203	2
204	1
205	10
206	2
207	242
208	29
209	238
210	28
211	10
212	1
214	51
215	5
216	49
217	5
218	1
219	10
220	2
221	81
222	40
223	81
224	46
225	414
226	87
227	23
228	3
230	5
231	3
232	3
233	12
234	3
235	12
236	2
237	2
243	3
245	1
247	13
248	2
249	12
250	2
259	1
260	0
261	3
262	1
263	2
273	1
275	265
276	45
277	269
278	49
279	13
280	1
289	31
290	5
291	32
292	5
293	0
304	1
306	1
