Mass Spectrum: Cyclohexanone, 2,3-didehydro-2-butyl-3-[4-[N-acetyl-N-methylamino]butyl
Formula: C17H29NO2
CAS: 82260-30-8
Molecular weight: 279
m/z	intensity
41	156
42	98
43	594
44	756
45	72
46	2
49	5
50	3
51	11
52	7
53	37
55	153
56	51
57	88
58	79
59	13
60	1
63	2
65	29
66	19
67	68
68	14
69	25
70	109
71	26
72	45
73	39
74	71
75	5
77	60
78	21
79	95
80	19
81	40
82	12
83	18
84	32
85	6
86	252
87	209
88	37
89	4
91	83
92	18
93	51
94	19
95	46
96	15
97	14
98	22
99	2
100	92
101	96
102	7
103	9
104	7
105	37
106	13
107	50
108	22
109	24
110	13
111	9
112	34
114	999
115	84
116	10
117	14
118	6
119	16
120	15
121	76
122	20
123	24
124	17
125	7
126	13
127	13
128	21
129	18
130	10
131	22
132	7
133	21
134	2
135	66
136	20
137	26
138	10
139	4
141	3
143	3
144	3
145	18
146	12
147	35
148	16
149	107
150	46
151	141
152	19
153	10
154	2
155	1
156	1
158	1
159	10
160	8
161	29
162	15
163	68
164	16
165	11
166	9
167	2
168	2
171	1
173	9
174	3
175	19
176	12
177	46
178	19
179	44
180	54
181	8
182	5
184	1
186	2
187	3
188	16
189	7
190	9
191	10
192	8
193	31
194	38
195	6
196	3
198	2
202	5
203	3
204	33
205	17
206	30
207	7
208	19
209	4
210	5
213	2
214	2
215	1
216	4
217	1
218	16
219	7
220	14
222	403
223	60
224	9
226	1
228	1
230	1
232	9
234	13
235	2
236	102
237	15
238	4
241	1
242	12
243	1
244	1
246	16
247	3
248	15
249	4
250	12
251	4
252	2
254	1
256	1
260	9
261	11
262	19
263	4
264	13
265	8
266	2
268	1
275	1
276	14
277	50
278	120
279	414
280	123
281	17
282	2
