Mass Spectrum: 2-Propenoic acid, 5-methyl-2-(1-methylethyl)cyclohexyl ester
Formula: C13H22O2
CAS: 82277-50-7
Molecular weight: 210
m/z	intensity
27	383
28	22
29	151
30	3
31	11
37	1
38	4
39	131
40	24
41	381
42	41
43	194
44	13
45	7
46	1
48	2
49	1
50	4
51	15
52	6
53	65
54	41
55	999
56	62
57	99
58	6
59	5
61	0
62	0
63	2
64	2
65	17
66	7
67	140
68	69
69	182
70	34
71	91
72	9
73	27
74	1
75	2
76	0
77	19
78	4
79	36
80	53
81	464
82	189
83	112
84	14
85	12
86	4
87	0
89	1
90	0
91	9
92	2
93	16
94	65
95	618
96	167
97	35
98	7
99	6
105	1
107	4
108	2
109	58
110	33
111	13
112	6
113	2
114	1
115	0
121	3
122	2
123	229
124	23
125	13
126	1
127	0
128	0
129	0
135	0
136	1
137	17
138	403
139	57
140	3
149	1
150	1
151	0
154	1
155	1
167	5
195	2
