Mass Spectrum: 5,5-Dimethyl-cyclohex-3-en-1-ol
Formula: C8H14O
CAS: 82299-68-1
Molecular weight: 126
m/z	intensity
45	46
46	5
50	51
51	106
52	61
53	240
54	94
55	890
56	360
57	999
58	77
59	12
62	8
63	17
65	74
66	36
67	767
68	58
69	173
70	37
71	29
73	22
77	60
78	12
79	77
80	10
81	100
82	932
83	578
84	94
85	817
86	59
91	34
92	6
93	197
94	16
95	5
97	14
98	26
105	4
108	37
109	15
111	135
112	10
