Mass Spectrum: Trimethylboroxine
Formula: C3H9B3O3
CAS: 823-96-1
Molecular weight: 126
m/z	intensity
25	1
26	40
27	79
28	62
29	38
30	8
31	21
35	0
36	5
37	5
38	16
39	43
40	6
41	117
44	4
45	0
46	0
49	1
50	4
51	2
52	9
53	22
54	38
55	75
56	12
57	8
58	0
59	1
63	1
65	2
66	7
67	48
68	158
69	244
71	28
74	3
77	1
78	1
79	3
80	4
81	8
82	8
83	11
84	17
85	9
86	1
87	0
91	1
92	0
93	1
94	1
95	7
96	9
97	8
98	3
99	1
100	0
101	1
108	18
109	189
110	755
111	999
112	30
113	7
122	1
123	5
124	34
125	108
126	137
127	7
128	1
