Mass Spectrum: Cyclohexanone, 3-hydroxy-
Formula: C6H10O2
CAS: 823-19-8
Molecular weight: 114
m/z	intensity
40	200
41	410
42	720
43	999
44	790
45	70
46	10
49	10
50	30
51	40
52	20
53	70
54	130
55	470
56	30
57	140
58	240
59	20
60	300
61	20
62	10
63	20
65	20
66	20
67	50
68	580
69	100
70	60
71	230
72	30
73	80
74	10
77	10
78	10
79	10
80	10
81	40
83	10
85	10
86	80
87	10
95	10
96	160
97	50
98	20
99	60
113	10
114	200
115	30
