Mass Spectrum: 1,3-Cyclohexanediol, cis-
Formula: C6H12O2
CAS: 823-18-7
Molecular weight: 116
m/z	intensity
25	0
26	21
27	229
28	62
29	240
30	6
31	105
33	9
34	0
35	0
37	5
38	14
39	212
40	40
41	434
42	636
43	505
44	999
45	358
46	19
47	85
50	9
51	30
52	7
53	70
54	708
55	479
56	119
57	391
58	37
59	23
60	13
61	2
62	11
63	9
64	9
65	13
66	12
67	35
68	39
69	402
70	419
71	82
72	25
73	606
74	28
75	30
76	3
77	25
78	7
79	89
80	762
81	95
82	7
83	300
84	22
85	2
86	7
87	2
88	105
89	9
91	3
92	9
93	9
94	4
95	10
96	5
97	106
98	695
99	60
100	5
101	13
102	1
103	2
104	7
105	0
106	7
107	3
108	6
109	10
110	4
112	5
113	6
114	6
115	10
116	57
117	9
118	4
