Mass Spectrum: Cyclohexane, 1-(chloromethyl)-4-methylene-
Formula: C8H13Cl
CAS: 823-83-6
Molecular weight: 144
m/z	intensity
12	2
13	1
15	30
16	23
19	0
20	1
26	31
28	134
29	80
30	2
33	0
34	0
35	3
36	11
39	332
40	72
41	290
42	25
43	16
44	2
45	3
46	1
47	1
48	2
49	35
50	32
51	82
52	37
53	184
54	131
55	236
56	19
57	3
58	0
59	9
60	1
61	5
62	10
63	22
64	6
65	58
66	35
67	405
68	344
69	43
70	2
71	0
73	3
74	4
75	24
76	4
77	103
78	32
79	173
80	69
81	93
82	19
83	2
85	5
86	0
87	2
88	33
89	18
90	16
91	101
92	21
93	325
94	33
95	999
96	78
97	9
98	0
99	1
100	0
101	6
102	48
103	13
104	18
105	12
106	3
107	25
108	101
109	101
110	12
111	2
114	1
115	40
116	18
117	16
118	6
119	0
127	0
129	21
130	2
135	1
139	0
140	0
144	168
145	16
146	56
147	6
148	0
