Mass Spectrum: Butanenitrile, 3-imino-2-(1,5-dimethyl-3-oxo-2-phenyl-4-pyrazolin-4-yl)hydrazono-
Formula: C15H16N6O
CAS: 82315-71-7
Molecular weight: 296
m/z	intensity
33	61
34	1
37	4
38	20
39	59
40	101
41	69
42	160
43	174
44	28
45	22
46	9
50	0
51	55
52	17
53	24
54	35
56	999
57	104
58	3
59	8
62	2
63	19
64	38
65	35
66	29
67	86
68	22
69	14
70	2
71	1
72	1
73	6
75	1
77	102
78	8
80	4
81	13
82	26
83	228
84	73
85	4
90	1
91	29
92	59
93	120
94	12
95	10
96	27
97	13
98	17
104	7
105	31
106	10
107	8
108	11
109	12
110	4
115	3
118	8
119	38
120	11
121	29
122	16
123	20
124	10
130	2
132	1
135	2
136	1
143	1
145	5
147	4
148	10
149	2
158	4
159	4
163	0
171	1
172	3
173	5
175	10
176	15
187	5
188	31
189	3
198	3
199	0
201	9
202	20
203	28
204	35
215	38
216	36
217	4
294	1
296	183
297	32
