Mass Spectrum: Verbenyl, ethyl ether
Formula: C12H20O
CAS: 823204-45-1
Molecular weight: 180
m/z	intensity
42	16
43	319
44	16
45	25
46	2
50	5
51	33
52	13
53	64
54	11
55	186
56	20
57	65
58	15
59	541
60	19
61	4
62	3
63	8
64	5
65	55
66	13
67	102
68	12
69	137
70	11
71	37
72	110
73	15
74	2
77	117
78	30
79	120
80	150
81	185
82	22
83	88
84	42
85	26
86	4
87	382
88	23
89	4
91	264
92	106
93	269
94	54
95	122
96	45
97	101
98	8
99	14
100	999
101	89
102	8
103	15
104	7
105	117
106	31
107	99
108	23
109	325
110	28
111	6
112	53
113	7
115	11
116	3
117	28
118	4
119	349
120	45
121	123
122	15
123	38
124	13
125	7
131	2
132	4
133	16
134	76
135	26
136	9
137	224
138	24
139	2
151	12
153	2
165	76
166	8
179	3
180	6
