Mass Spectrum: 2-Phenyllactic acid, 2TMS derivative
Formula: C15H26O3Si2
CAS: 82326-12-3
Molecular weight: 310
m/z	intensity
14	3
16	2
17	2
18	7
26	3
27	1
29	5
31	8
39	4
42	2
43	21
44	28
45	159
46	12
47	21
48	2
49	2
50	4
51	6
52	2
58	12
59	38
60	6
61	11
62	2
63	4
64	2
65	17
66	7
70	0
72	20
73	999
74	87
75	78
76	6
77	16
78	8
87	3
89	3
90	4
91	78
92	9
99	2
101	5
102	12
103	29
104	34
105	3
113	3
115	6
116	2
117	0
118	4
119	7
120	0
121	5
122	2
126	3
131	34
132	3
133	47
134	9
135	6
136	2
147	397
148	71
149	32
150	5
151	0
159	0
161	17
162	3
163	14
164	3
175	3
177	9
178	5
179	2
190	18
191	11
192	15
193	529
194	95
195	2
198	4
199	10
200	2
204	4
205	25
206	8
219	54
220	110
221	7
222	7
251	2
267	40
268	13
269	7
295	43
296	12
297	5
