Mass Spectrum: Acetamide, N1-(3-([2-(aminocarbothioyl)hydrazono]methyl)phenyl)
Formula: C10H12N4OS
CAS: 82351-03-9
Molecular weight: 236
m/z	intensity
26	4
27	21
29	10
30	7
31	8
33	6
34	5
36	1
37	6
38	23
39	68
40	11
41	32
42	36
43	999
44	23
45	12
46	3
47	5
48	9
49	1
50	30
51	65
52	45
53	22
54	18
55	22
56	9
57	28
58	6
59	54
60	197
61	12
62	23
63	73
64	61
65	133
66	26
67	15
68	4
69	16
70	3
71	16
72	1
73	7
74	14
75	24
76	281
77	178
78	55
79	40
80	53
81	22
82	12
83	11
84	5
85	9
86	2
87	4
88	6
89	53
90	59
91	98
92	221
93	86
94	23
95	7
96	3
97	9
98	3
99	3
100	1
101	2
102	122
103	11
104	72
105	39
106	94
107	75
108	149
109	14
110	3
111	5
112	2
113	2
114	1
115	2
116	6
117	25
118	524
119	208
120	60
121	12
122	2
123	2
124	2
125	3
126	1
127	2
128	1
129	3
130	1
131	7
132	13
133	28
134	172
135	143
136	24
137	5
138	3
139	1
140	1
141	1
142	1
143	3
144	5
145	7
146	6
147	6
148	5
149	14
150	20
151	10
152	6
153	2
154	0
155	1
156	0
157	1
158	19
159	14
161	245
162	42
163	36
164	8
165	3
166	3
167	2
168	0
169	0
170	0
171	0
172	0
173	0
174	1
175	2
176	36
177	120
178	12
179	6
180	3
181	0
182	0
183	0
184	0
185	0
186	0
187	1
188	5
189	0
190	0
191	0
192	4
193	7
194	2
195	0
196	0
197	0
198	0
199	0
200	0
201	0
202	2
203	8
204	2
205	4
206	2
207	0
208	0
209	0
210	0
211	0
212	0
213	0
214	0
215	0
216	0
217	0
218	1
219	100
220	13
221	6
222	1
223	0
224	1
225	0
226	0
227	0
228	0
229	0
230	0
231	0
232	0
233	0
234	2
235	21
236	626
237	91
238	34
239	4
