Mass Spectrum: Carbamothioic acid, O-isobutyl ester
Formula: C5H11NOS
CAS: 82360-09-6
Molecular weight: 133
m/z	intensity
27	110
28	100
29	370
31	34
38	120
40	22
41	580
42	52
43	86
44	280
47	32
53	38
55	110
56	530
57	260
60	270
61	95
62	21
77	220
78	999
79	26
80	64
86	52
133	370
134	27
135	18
