Mass Spectrum: Dimethylcarbamothioic acid, O-isobutyl ester
Formula: C7H15NOS
CAS: 82360-10-9
Molecular weight: 161
m/z	intensity
27	68
28	42
29	160
39	80
40	22
41	180
42	90
43	87
44	150
46	58
55	41
56	93
57	90
58	72
60	28
72	999
73	55
74	80
88	170
92	43
100	37
105	97
106	920
107	20
108	51
146	43
161	220
162	21
163	11
