Mass Spectrum: Isobutylcarbamothioic acid, O-ethyl ester
Formula: C7H15NOS
CAS: 82360-11-0
Molecular weight: 161
m/z	intensity
27	310
28	190
29	720
39	84
41	300
43	53
44	400
55	380
56	180
57	460
58	80
59	20
60	140
61	37
62	40
70	57
72	999
73	59
78	200
100	40
104	42
106	25
116	40
132	340
133	20
134	26
161	720
162	71
163	35
