Mass Spectrum: sec-Butylcarbamothioic acid, O-ethyl ester
Formula: C7H15NOS
CAS: 82360-12-1
Molecular weight: 161
m/z	intensity
27	180
28	130
29	560
30	60
38	64
40	260
42	120
43	93
44	400
55	320
56	140
57	380
58	60
60	120
61	55
62	33
70	35
72	999
73	60
78	210
81	36
85	27
100	42
104	38
106	22
116	40
132	310
133	32
161	670
162	60
163	30
