Mass Spectrum: 2,2-Dimethyl-propyl 2,2-dimethyl-propanesulfinyl sulfone
Formula: C10H22O3S2
CAS: 82360-14-3
Molecular weight: 254
m/z	intensity
45	70
48	131
53	79
55	539
56	387
57	959
64	20
71	999
254	2
