Mass Spectrum: RS-2,3-hexanediol
Formula: C6H14O2
CAS: 82360-67-6
Molecular weight: 118
m/z	intensity
27	170
28	50
29	140
30	120
41	310
43	550
44	50
45	650
55	730
57	380
69	20
71	30
72	280
73	999
