Mass Spectrum: 3-(5-Phenyl-1,3,4-oxadiazol-2-ylmethyl)indole
Formula: C17H13N3O
CAS: 82380-73-2
Molecular weight: 275
m/z	intensity
33	4
34	3
35	3
36	21
37	20
38	58
39	125
40	75
41	25
42	18
43	37
44	43
45	14
48	0
50	206
51	327
52	47
53	11
54	1
55	10
56	7
57	12
58	2
60	1
61	12
62	49
63	108
64	29
65	23
66	2
67	0
69	3
70	1
71	2
72	1
73	11
74	47
75	69
76	205
77	807
78	73
79	6
81	0
82	0
83	1
85	1
86	4
87	9
88	19
89	66
90	34
91	18
92	0
93	0
97	0
99	1
100	5
101	36
102	89
103	203
105	900
106	72
107	3
111	3
112	0
113	5
114	12
115	24
116	26
117	30
118	9
119	15
121	35
122	155
123	46
127	12
128	68
129	225
130	999
131	99
132	7
133	0
135	5
137	1
140	2
141	5
142	17
143	34
144	145
145	49
146	4
147	0
149	24
150	121
151	8
154	2
155	25
156	14
157	40
158	6
161	2
163	0
164	13
165	93
166	35
167	2
170	5
171	37
172	3
173	1
189	0
203	4
204	1
216	0
217	7
218	16
219	3
222	92
223	8
229	1
231	2
232	3
246	3
272	0
273	9
274	99
275	378
276	73
277	5
