Mass Spectrum: N-(4-Chlorobenzenesulfonyl)azetidin-3-one
Formula: C9H8ClNO3S
CAS: 82380-61-8
Molecular weight: 245
m/z	intensity
41	629
42	999
43	319
44	459
50	42
51	167
61	32
62	16
63	40
69	19
73	42
74	125
75	552
76	99
77	26
85	59
87	20
89	11
110	9
111	333
112	38
113	108
125	17
131	9
175	42
177	14
217	47
219	16
