Mass Spectrum: N-Benzenesulfonylazetidin-3-one
Formula: C9H9NO3S
CAS: 82380-59-4
Molecular weight: 211
m/z	intensity
41	819
42	999
43	345
44	419
51	837
52	59
53	21
55	20
57	29
63	21
64	18
65	47
69	32
74	45
75	32
76	43
77	703
78	87
91	139
92	15
97	23
125	10
141	33
183	62
