Mass Spectrum: (4R,4aS,6S)-4,4a-Dimethyl-6-(prop-1-en-2-yl)-1,2,3,4,4a,5,6,7-octahydronaphthalene
Formula: C15H24
CAS: 823810-22-6
Molecular weight: 204
m/z	intensity
27	32
29	53
39	103
40	17
41	229
42	19
43	47
50	4
51	30
52	15
53	96
56	18
63	12
64	7
65	71
66	19
67	120
71	7
76	3
77	160
78	37
79	201
80	167
81	143
82	31
89	5
91	292
92	61
93	249
94	205
95	145
96	16
97	5
102	6
103	28
104	12
105	999
106	146
107	255
108	92
109	91
110	22
111	19
115	47
116	18
117	57
118	15
119	150
120	41
121	245
122	55
123	40
124	146
125	23
127	8
128	18
129	17
130	7
131	31
132	11
133	185
134	32
135	20
136	53
137	5
141	4
145	33
146	8
147	99
148	59
149	29
150	3
160	5
161	164
162	35
163	40
175	13
176	5
189	109
190	17
204	90
205	14
