Mass Spectrum: 2-Ethyl-N-(4-methylphenylsulfonyl)azetidin-3-one
Formula: C12H15NO3S
CAS: 82380-63-0
Molecular weight: 253
m/z	intensity
38	17
39	111
40	39
41	243
42	320
43	11
45	0
48	4
50	17
51	23
52	15
53	15
54	40
55	44
56	1
62	26
63	76
64	35
65	221
66	21
68	67
70	999
71	35
72	0
73	0
74	6
75	9
76	13
77	23
78	12
79	5
80	1
83	0
84	0
85	1
86	5
87	8
88	11
89	138
90	80
91	458
92	37
93	2
95	2
97	0
102	0
103	2
104	1
105	9
106	1
107	3
108	1
109	1
111	3
117	2
118	2
119	0
120	2
121	7
122	3
123	2
124	1
130	0
139	18
140	0
141	0
143	0
152	0
155	134
157	12
161	1
162	0
167	1
171	0
174	0
180	4
184	1
186	0
188	4
193	0
194	1
211	0
212	9
213	1
224	4
225	26
226	1
227	0
231	0
251	0
252	0
