Mass Spectrum: Vinyldimethyl(1,3,3-tribromopropyl)silane
Formula: C7H13Br3Si
CAS: 82389-55-7
Molecular weight: 362
m/z	intensity
39	137
40	8
59	457
60	40
61	18
85	999
86	106
87	38
107	20
109	42
111	21
119	357
120	18
121	358
122	19
123	67
124	8
125	68
137	110
138	7
139	107
140	6
149	130
150	9
151	131
152	7
164	48
166	47
198	61
200	117
201	17
202	60
203	39
205	18
