Mass Spectrum: N-(4-Nitrobenzenesulfonyl)azetidin-3-one
Formula: C9H8N2O5S
CAS: 82380-62-9
Molecular weight: 256
m/z	intensity
41	629
42	999
44	45
49	81
50	591
51	59
53	19
61	27
63	46
64	162
65	33
70	29
73	9
75	332
76	330
77	82
78	21
89	19
90	18
91	9
92	182
93	19
106	25
122	301
123	31
170	10
186	79
228	42
