Mass Spectrum: 1-Phenyl-1-butene
Formula: C10H12
CAS: 824-90-8
Molecular weight: 132
m/z	intensity
26	7
27	41
28	8
29	21
31	2
37	3
38	11
39	84
40	6
41	22
42	3
43	9
44	4
45	2
49	3
50	40
51	107
52	25
53	24
54	25
55	13
56	5
57	12
58	12
59	2
61	6
62	18
63	59
64	35
65	80
66	13
67	3
69	6
70	3
71	6
73	3
74	21
75	20
76	22
77	109
78	75
79	16
81	3
82	2
83	5
84	3
85	5
86	6
87	9
88	4
89	41
90	12
91	273
92	28
93	3
95	2
96	2
97	4
98	3
99	2
101	6
102	31
103	38
104	44
105	46
106	26
107	8
111	3
114	6
115	300
116	97
117	999
118	101
119	8
126	5
127	19
128	40
129	41
130	16
131	115
132	459
133	52
134	3
