Mass Spectrum: Picolinic acid N-oxide
Formula: C6H5NO3
CAS: 824-40-8
Molecular weight: 139
m/z	intensity
12	2
14	1
15	2
16	5
24	1
25	8
26	35
27	69
28	10
29	3
30	22
31	3
36	5
37	39
38	79
39	196
40	28
41	14
42	8
43	3
44	61
45	44
46	1
47	2
48	4
49	25
50	88
51	278
52	120
53	26
54	4
55	9
56	1
57	1
60	3
61	29
62	34
63	67
64	18
65	9
66	19
67	7
68	8
69	3
74	2
75	14
76	19
77	16
78	999
79	126
80	7
81	2
83	1
91	2
92	4
93	2
94	4
95	648
96	40
97	3
106	1
111	1
122	2
123	1
139	273
140	20
141	4
