Mass Spectrum: Ethanone, 1-bicyclo[2.2.1]hept-2-yl-, endo-
Formula: C9H14O
CAS: 824-58-8
Molecular weight: 138
m/z	intensity
41	309
42	33
43	808
44	21
50	9
51	39
52	9
53	90
54	24
55	174
56	15
57	30
58	18
59	30
65	87
66	186
67	511
68	72
69	57
70	9
71	999
72	99
77	60
78	90
79	120
80	910
81	135
82	27
83	33
84	30
91	87
92	54
93	60
94	45
95	571
96	54
97	180
98	12
105	129
106	24
109	54
119	12
120	159
121	27
123	30
138	90
