Mass Spectrum: Cyclohexane, 1,2-diethyl-, cis-
Formula: C10H20
CAS: 824-43-1
Molecular weight: 140
m/z	intensity
26	7
27	109
29	103
30	2
31	0
34	0
36	0
37	0
38	2
39	104
40	16
41	274
42	72
43	98
44	3
45	0
46	0
47	0
49	0
50	2
51	11
52	6
53	47
54	43
55	413
56	100
57	51
58	2
59	0
62	0
63	1
64	0
65	12
66	9
67	102
68	30
69	999
70	111
71	12
72	1
73	0
74	0
75	0
76	0
77	15
78	5
79	24
80	11
81	49
82	23
83	31
84	19
85	4
86	0
89	0
91	6
92	1
93	3
94	0
95	12
96	5
97	24
98	7
99	0
100	0
103	0
105	1
106	1
107	0
108	0
109	16
110	113
111	650
112	66
113	2
139	0
140	43
141	4
142	0
