Mass Spectrum: 2-Hexyldecyl acetate
Formula: C18H36O2
CAS: 82409-75-4
Molecular weight: 284
m/z	intensity
26	3
27	49
28	11
29	129
30	3
31	4
38	1
39	46
40	11
41	363
42	86
43	999
44	28
45	5
50	1
51	2
52	2
53	28
54	59
55	469
56	475
57	649
58	36
59	5
60	1
61	53
62	1
63	1
65	7
66	9
67	94
68	89
69	467
70	304
71	339
72	22
73	30
74	68
75	6
77	5
78	1
79	16
80	5
81	67
82	101
83	414
84	195
85	199
86	15
87	1
91	3
92	1
93	4
94	2
95	33
96	72
97	320
98	178
99	48
100	7
101	1
107	1
108	1
109	12
110	81
111	357
112	121
113	28
114	6
115	1
121	1
122	1
123	5
124	24
125	84
126	140
127	45
128	8
129	1
135	1
137	3
138	39
139	124
140	52
141	11
142	7
143	1
150	1
151	1
152	11
153	19
154	67
155	24
156	4
157	1
164	1
165	1
166	4
167	8
168	10
169	3
170	2
171	3
180	3
181	8
182	8
183	3
185	1
192	1
194	1
195	6
196	32
197	5
199	2
200	5
201	1
208	1
209	2
210	3
211	1
213	1
222	1
223	9
224	47
225	9
226	1
228	2
241	1
253	1
266	1
269	1
