Mass Spectrum: 2,3-Difluoro-6-nitrophenol
Formula: C6H3F2NO3
CAS: 82419-26-9
Molecular weight: 175
m/z	intensity
30	83
37	163
38	145
39	152
40	31
41	4
42	7
43	17
44	56
45	52
46	144
47	19
48	22
49	117
50	458
51	499
52	131
53	274
54	32
55	90
56	325
57	505
58	23
60	39
61	289
62	231
63	126
64	319
65	33
66	18
67	20
68	153
69	543
70	69
71	211
72	14
73	49
74	134
75	913
76	80
77	46
78	11
79	99
80	191
81	653
82	83
83	15
84	10
85	3
86	10
87	52
88	129
89	37
90	6
91	21
92	19
93	13
94	31
95	12
97	83
99	568
100	676
101	999
102	105
103	4
104	1
108	4
109	19
110	5
111	4
112	9
113	7
114	32
115	9
117	492
118	26
128	80
129	79
130	107
131	6
145	429
146	27
158	21
159	21
175	602
176	42
177	3
