Mass Spectrum: 3-Nonen-5-one
Formula: C9H16O
CAS: 82456-34-6
Molecular weight: 140
m/z	intensity
25	6
27	98
28	7
29	217
30	3
39	81
40	9
41	69
42	11
43	127
44	8
45	3
50	4
51	8
52	5
53	37
54	14
55	366
56	24
57	54
58	6
67	5
68	5
69	13
70	10
71	3
77	6
79	9
80	6
81	7
82	6
83	999
84	56
85	34
91	5
93	4
97	11
98	334
99	18
111	197
112	13
139	0
140	8
141	1
