Mass Spectrum: 3-Methyl-1-(3-pyridyl)-1-butanone
Formula: C10H13NO
CAS: 82465-52-9
Molecular weight: 163
m/z	intensity
43	220
51	320
57	70
78	630
106	999
121	670
148	150
163	310
