Mass Spectrum: 2-Acetyl-2-methyl-succinonitrile
Formula: C7H8N2O
CAS: 82471-44-1
Molecular weight: 136
m/z	intensity
25	0
26	24
27	23
28	23
29	4
30	0
31	0
36	0
37	10
38	19
39	54
40	47
41	59
42	39
43	999
44	31
45	30
46	3
47	0
48	1
50	6
51	22
52	46
53	12
54	29
55	3
56	0
57	1
58	0
61	0
62	2
63	6
64	13
65	7
66	36
67	30
68	8
69	1
70	0
71	0
74	0
75	1
76	3
77	6
78	3
79	17
80	2
81	2
82	1
83	1
84	0
85	0
88	0
89	1
90	0
91	2
92	1
93	39
94	18
95	2
96	8
97	1
109	0
110	1
121	1
136	5
137	0
