Mass Spectrum: N,N-Bis(2-chloroethyl)amine, TMS derivative
Formula: C7H17Cl2NSi
CAS: 82475-57-8
Molecular weight: 213
m/z	intensity
42	401
43	291
44	102
45	286
49	158
56	992
59	184
63	122
65	107
70	580
73	999
74	87
79	98
86	54
93	410
95	124
101	23
104	12
106	14
164	883
165	112
166	270
167	20
168	4
178	5
213	22
215	14
