Mass Spectrum: Acetamide, N-(3-methyl-2-oxobutyl)-
Formula: C7H13NO2
CAS: 82479-25-2
Molecular weight: 143
m/z	intensity
26	25
27	151
28	60
29	96
30	926
31	61
38	10
39	77
40	15
41	153
42	101
43	999
44	34
45	119
53	6
54	7
55	20
56	10
57	15
58	21
59	6
60	70
61	39
67	4
68	5
69	7
70	38
71	142
72	346
73	282
74	37
82	5
83	5
84	10
85	4
86	15
88	15
100	331
101	17
102	4
110	3
128	3
143	4
144	6
