Mass Spectrum: 1,2,4,5-Tetrazine, 3,6-bis(4-nitrophenyl)methyl]-
Formula: C16H12N6O4
CAS: 82481-30-9
Molecular weight: 352
m/z	intensity
30	69
32	10
39	33
42	2
44	200
45	21
50	46
51	37
52	19
53	12
59	12
60	25
64	57
65	52
66	19
74	29
75	38
76	53
77	133
78	37
79	30
86	2
87	14
88	51
91	14
92	34
102	20
103	23
104	135
106	2
114	37
115	49
116	999
117	95
118	21
129	3
133	11
135	37
136	15
145	6
146	16
162	451
163	67
164	12
352	31
