Mass Spectrum: Benzenecarboximidic acid, ethyl ester
Formula: C9H11NO
CAS: 825-60-5
Molecular weight: 149
m/z	intensity
43	15
44	55
45	30
46	13
50	150
51	275
52	60
63	18
64	10
65	18
73	10
74	40
75	50
76	155
77	550
78	90
103	300
104	655
105	999
106	85
121	500
122	50
134	15
148	185
149	45
