Mass Spectrum: Benzeneacetonitrile, .alpha.-(hydroxyimino)-
Formula: C8H6N2O
CAS: 825-52-5
Molecular weight: 146
m/z	intensity
38	108
39	246
41	33
42	10
44	13
46	7
48	8
49	48
50	470
51	815
52	121
53	32
55	19
56	3
57	8
58	14
59	2
60	11
61	40
62	75
63	182
64	83
65	61
66	36
67	10
68	2
69	8
70	4
72	3
73	4
74	49
75	83
76	127
77	160
78	71
79	21
80	5
85	6
86	16
87	26
89	999
90	100
91	33
92	10
93	4
94	7
95	3
96	4
100	4
101	21
102	28
103	125
104	14
105	5
114	46
115	4
116	757
117	242
118	30
119	67
129	13
130	8
145	12
146	261
147	84
148	7
