Mass Spectrum: Bicyclo[2.2.1]hexa-2,5-diene, 2,3-dicarbonitrile-
Formula: C9H6N2
CAS: 825-24-1
Molecular weight: 142
m/z	intensity
24	2
25	5
26	67
27	183
28	116
29	11
30	1
31	2
36	5
37	114
38	200
39	385
40	134
41	34
42	3
43	14
44	5
45	1
48	5
49	21
50	105
51	115
52	72
53	9
54	2
55	9
56	4
57	16
58	4
59	1
60	5
61	60
62	178
63	180
64	164
65	126
66	999
67	60
68	7
69	7
70	3
71	3
72	1
73	6
74	20
75	71
76	81
77	31
78	9
79	6
80	3
81	4
82	2
83	3
84	2
85	8
86	22
87	56
88	139
89	156
90	37
91	38
92	8
93	9
94	3
95	3
96	1
97	1
98	2
99	10
100	13
101	8
102	12
103	6
104	1
105	6
106	2
107	1
108	1
109	2
110	2
111	4
112	6
113	23
114	171
115	797
116	660
117	56
118	3
119	1
120	0
121	1
122	2
123	0
124	1
125	0
126	0
127	1
128	3
129	3
130	1
131	3
132	2
133	1
134	0
135	0
136	0
137	0
138	0
139	2
140	6
141	258
142	675
143	70
144	4
145	1
