Mass Spectrum: Monochloromethyl 4-chloroisopentanoate
Formula: C6H10Cl2O2
CAS: 82504-53-8
Molecular weight: 184
m/z	intensity
39	352
41	582
42	578
43	363
49	447
53	98
55	696
63	79
69	128
72	589
77	80
83	60
90	130
91	178
108	999
110	333
118	79
119	519
121	173
