Mass Spectrum: Phosphirane, 1-menthyl-2-vinyl-
Formula: C14H25P
CAS: 82524-26-3
Molecular weight: 224
m/z	intensity
25	6
26	36
27	368
28	73
29	323
30	6
31	3
32	4
37	5
38	10
39	308
40	236
41	999
42	58
43	421
44	16
45	67
46	5
47	13
48	10
49	10
50	17
51	41
52	19
53	185
54	112
55	781
56	55
57	173
58	44
59	64
60	9
61	20
62	16
63	7
65	48
66	22
67	236
68	60
69	441
70	33
71	159
72	22
73	47
74	43
75	46
76	10
77	100
78	22
79	145
80	68
81	636
82	125
83	547
84	48
85	233
86	356
87	799
88	73
89	29
90	11
91	55
92	25
93	130
94	139
95	627
96	137
97	152
98	14
99	94
100	185
101	30
102	14
103	3
105	12
106	4
107	34
108	14
109	66
110	21
111	34
112	13
113	153
114	86
115	27
116	5
117	3
119	3
121	47
122	13
123	94
124	13
125	30
126	17
127	76
128	121
129	13
130	3
135	5
136	70
137	413
138	305
139	125
140	34
141	37
142	37
143	3
153	13
154	32
155	84
156	15
165	4
167	56
168	30
169	50
170	233
171	30
179	5
180	3
181	108
182	30
183	5
195	7
196	7
209	42
210	7
222	3
223	11
224	110
225	18
