Mass Spectrum: Acetic acid, (2-oxo-benzoxathiol-5-yl) ester
Formula: C9H6O4S
CAS: 82531-06-4
Molecular weight: 210
m/z	intensity
33	2
34	3
36	1
37	32
38	43
39	101
40	76
41	51
42	129
43	999
44	73
45	60
46	4
49	24
50	80
51	109
52	46
53	216
54	125
55	77
56	56
57	195
58	39
59	7
60	20
61	27
62	39
63	39
64	10
65	11
67	7
68	21
69	84
70	16
71	11
72	2
73	2
74	9
75	10
76	12
77	25
78	18
79	89
80	13
81	17
82	41
83	47
84	45
85	82
86	40
87	8
89	6
90	3
91	21
92	9
93	31
94	5
95	23
96	6
97	4
101	6
102	8
103	3
104	2
105	5
107	37
108	5
109	2
111	2
112	530
113	20
114	19
115	5
117	3
123	5
124	6
128	7
129	27
139	21
140	174
141	11
142	3
149	7
167	23
168	375
169	31
170	17
171	4
174	2
175	28
176	14
183	1
188	2
210	82
211	8
