Mass Spectrum: 4,7-Methanoisobenzofuran-1,3-dione, 3a,4,7,7a-tetrahydro-
Formula: C9H8O3
CAS: 826-62-0
Molecular weight: 164
m/z	intensity
13	2
14	1
15	1
18	1
24	2
25	9
26	92
27	43
28	41
29	4
31	2
33	2
36	2
37	18
38	43
39	177
40	87
41	10
42	1
43	2
44	9
45	24
46	8
49	4
50	27
51	43
52	13
53	10
54	62
55	41
56	1
57	1
59	1
60	2
61	11
62	22
63	46
64	12
65	150
66	999
67	55
68	2
71	1
74	3
75	1
76	1
77	12
78	10
79	8
80	1
89	7
90	4
91	274
92	130
93	9
94	2
98	15
99	27
100	1
105	2
118	2
119	29
120	48
121	4
136	3
146	2
164	21
165	2
