Mass Spectrum: 2-Thiazoline-2-carboxylic acid, ethyl ester
Formula: C6H9NO2S
CAS: 82677-98-3
Molecular weight: 159
m/z	intensity
27	251
29	485
30	15
34	2
39	1
40	41
41	125
42	16
43	11
44	19
45	179
46	38
47	31
54	38
56	19
57	11
58	49
59	313
60	999
61	46
62	39
69	1
75	9
84	2
85	2
86	48
87	299
88	29
89	8
114	88
115	157
116	10
117	3
159	281
160	19
161	7
