Mass Spectrum: 4-Thiazolol, 2-phenyl-
Formula: C9H7NOS
CAS: 827-45-2
Molecular weight: 177
m/z	intensity
33	4
34	3
35	0
36	3
37	23
38	35
39	78
40	18
41	13
42	48
43	8
44	47
45	227
46	389
47	20
48	20
49	21
50	164
51	184
52	49
53	7
54	1
55	1
56	2
57	5
58	5
59	5
60	3
61	11
62	17
63	34
64	18
65	9
67	18
68	3
69	16
70	5
71	2
72	8
74	160
75	74
76	204
77	224
78	16
79	1
80	1
81	3
82	5
83	1
84	2
85	2
86	7
87	4
88	8
89	8
90	7
91	32
92	14
93	6
94	2
95	2
96	0
97	0
99	7
100	4
101	6
103	271
104	999
105	78
106	4
107	1
108	4
109	1
110	0
112	0
114	1
116	20
117	4
118	0
119	1
121	25
122	4
123	1
129	0
130	3
132	5
133	2
134	15
135	22
136	2
137	1
139	0
146	0
148	7
149	6
150	1
151	0
152	0
162	0
163	0
172	0
173	1
176	84
177	271
178	33
179	14
180	1
