Mass Spectrum: 1,3-Cyclopentanedione, 2-isopentyl-
Formula: C10H16O2
CAS: 827-03-2
Molecular weight: 168
m/z	intensity
41	220
42	20
43	100
53	30
56	60
57	50
65	30
67	20
68	20
69	70
70	50
84	40
98	70
99	150
111	380
112	999
113	70
125	100
139	10
151	20
153	50
168	160
169	20
