Mass Spectrum: 2,2-Dimethyl-3-trans-.beta.-(2-methylallyl)-cyclopropanecarboxylic acid
Formula: C10H16O2
CAS: 827-90-7
Molecular weight: 168
m/z	intensity
26	54
27	195
28	92
29	241
30	12
31	24
32	1
35	1
36	13
37	3
38	6
39	281
40	96
41	734
42	69
43	523
44	21
45	46
46	2
47	3
48	1
49	2
50	9
51	27
52	18
53	253
54	41
55	296
56	91
57	92
58	8
59	116
60	7
61	1
62	0
63	5
64	3
65	94
66	57
67	999
68	597
69	191
70	15
71	82
72	6
73	11
74	1
75	2
76	2
77	103
78	20
79	202
80	65
81	416
82	72
83	108
84	24
85	100
86	8
87	2
88	3
89	2
90	3
91	155
92	23
93	99
94	21
95	599
96	138
97	85
98	14
99	6
100	23
101	32
102	3
103	4
104	2
105	45
106	9
107	255
108	51
109	82
110	12
111	88
112	38
113	760
114	51
115	6
116	0
117	3
118	1
119	4
120	1
121	12
122	81
123	434
124	70
125	304
126	40
127	4
132	0
133	1
134	1
135	32
136	3
137	2
138	2
139	6
140	3
141	0
145	0
149	1
150	17
151	3
152	0
153	185
154	20
155	1
167	0
168	60
169	7
