Mass Spectrum: Iditol, hexaacetate
Formula: C18H26O12
CAS: 82730-67-4
Molecular weight: 434
m/z	intensity
27	0
28	3
29	8
30	4
31	2
39	2
41	4
43	999
44	29
45	5
52	0
53	1
54	0
55	11
56	4
57	6
58	0
60	4
61	12
62	0
65	0
66	0
67	0
68	17
69	23
70	5
71	4
72	0
73	32
74	3
75	0
76	0
79	0
80	1
81	8
82	3
83	3
84	2
85	50
86	36
87	3
89	0
93	1
94	1
95	1
96	0
97	39
98	21
99	8
100	4
101	4
102	8
103	107
104	5
105	0
109	3
110	32
111	19
112	5
113	2
114	2
115	251
116	48
117	4
118	0
121	0
124	0
125	0
126	1
127	69
128	99
129	10
130	1
131	0
132	0
133	1
139	81
140	11
141	4
142	2
143	1
144	2
145	148
146	10
147	1
152	25
153	31
154	3
155	0
156	0
157	91
158	35
159	4
160	0
169	4
170	87
171	11
172	1
173	0
174	0
175	29
176	2
177	0
182	0
184	0
186	1
187	109
188	10
189	1
194	0
199	6
200	6
201	0
203	0
211	2
212	16
213	4
214	0
217	135
218	13
219	2
229	4
230	7
231	1
241	0
242	5
243	0
247	1
254	0
259	42
260	5
261	1
272	9
273	3
274	0
289	57
290	8
291	1
314	0
315	0
331	0
332	0
333	0
361	15
362	2
363	0
375	9
376	1
377	0
435	0
