Mass Spectrum: 4-Fluoro-5-(4-methylpiperazin-1-yl)-2-nitroaniline
Formula: C11H15FN4O2
CAS: 82759-10-2
Molecular weight: 254
m/z	intensity
33	0
38	0
39	6
40	1
41	25
42	396
43	999
44	97
45	0
46	0
51	3
52	10
53	2
54	13
55	13
56	80
57	84
58	39
59	1
60	0
62	1
63	7
64	1
65	3
66	1
67	2
68	2
69	4
70	380
71	337
72	17
73	1
75	1
76	4
77	2
78	2
79	0
80	0
81	11
82	24
83	30
84	6
85	14
86	1
88	0
89	4
90	9
91	2
92	0
94	1
95	6
96	11
97	11
98	9
99	10
100	0
102	1
103	1
104	3
105	1
107	1
108	9
109	66
110	23
111	4
112	2
116	1
117	8
118	1
119	1
120	0
121	1
122	12
123	9
124	4
125	9
126	1
127	11
129	0
131	0
132	0
133	1
134	1
135	8
136	13
137	31
138	4
139	3
144	0
145	1
146	1
147	2
148	1
149	3
150	2
151	3
152	3
153	31
154	2
155	1
160	0
161	0
162	0
163	5
164	5
165	3
166	2
167	3
168	1
169	12
170	3
175	0
176	1
177	1
178	1
179	3
180	1
181	1
182	6
183	75
184	18
185	1
187	0
188	0
191	13
192	6
193	2
194	15
195	1
196	1
197	5
198	3
204	1
205	2
206	2
207	5
208	1
210	6
211	4
212	21
213	1
217	0
219	1
221	0
224	1
225	0
226	3
233	1
234	14
235	1
236	0
237	3
238	6
239	5
252	0
253	38
254	271
255	33
256	1
