Mass Spectrum: Adenosine, 5'-deoxy-, 3TMS derivative
Formula: C19H37N5O3Si3
CAS: 82752-43-0
Molecular weight: 467
m/z	intensity
45	100
47	11
55	16
57	27
58	15
59	51
61	10
69	11
72	20
73	999
74	100
75	140
76	10
77	10
81	10
83	10
84	25
85	25
99	20
101	20
102	10
103	22
111	16
115	34
116	13
117	17
127	22
129	31
130	24
131	40
133	36
135	15
136	10
142	15
143	66
144	10
145	30
147	140
148	24
149	22
155	10
164	36
165	30
170	74
171	110
172	25
173	10
191	26
192	180
193	30
194	10
206	50
207	60
208	120
209	20
217	96
218	24
219	11
231	56
232	46
233	15
234	10
235	11
236	660
237	120
238	34
243	24
244	29
245	11
260	330
261	80
262	37
264	33
265	10
278	13
279	38
280	85
281	25
282	10
288	25
306	15
307	4
308	7
309	4
322	28
323	10
324	4
334	45
335	14
336	12
337	17
338	5
360	6
362	4
377	7
378	3
380	4
394	3
452	72
453	28
454	12
455	3
467	14
468	6
469	3
