Mass Spectrum: 3-(7-Methoxy-2H-1,3-benzodioxol-5-yl)propanoic acid
Formula: C11H12O5
CAS: 827608-02-6
Molecular weight: 224
m/z	intensity
37	51
38	112
39	257
40	37
41	71
42	152
43	49
45	999
46	38
49	37
50	222
51	293
52	115
53	294
54	12
55	83
60	11
61	40
62	83
63	171
64	89
65	123
66	52
67	28
69	13
73	26
74	42
75	35
76	39
77	364
78	148
79	113
80	7
81	22
86	11
87	7
88	4
89	35
90	10
91	80
92	48
93	19
94	11
95	38
102	3
103	11
105	61
106	15
107	20
109	14
119	10
120	33
121	87
122	31
123	20
124	5
133	16
134	8
135	28
136	8
137	27
149	33
150	12
151	16
152	9
153	5
164	5
165	803
166	70
177	10
178	40
179	53
180	7
193	3
223	9
224	292
225	37
226	3
