Mass Spectrum: Ethyl N-(2-methoxyethyl)alaninate
Formula: C8H17NO3
CAS: 82772-78-9
Molecular weight: 175
m/z	intensity
42	164
43	107
44	157
45	80
56	565
57	79
58	103
59	263
70	500
102	999
103	116
130	237
175	10
