Mass Spectrum: Methane, isopropoxyphenoxy-
Formula: C10H14O2
CAS: 828-12-6
Molecular weight: 166
m/z	intensity
40	49
41	118
42	29
43	316
44	19
45	19
50	39
51	118
55	19
63	29
65	99
66	99
73	79
77	158
78	29
79	29
94	999
95	69
107	118
108	9
136	59
137	9
166	69
167	9
