Mass Spectrum: 3,4-Methylenedioxy-N-ethylamphetamine
Formula: C12H17NO2
CAS: 82801-81-8
Molecular weight: 207
m/z	intensity
15	3
18	13
26	2
27	17
28	26
29	28
30	8
37	1
38	2
39	14
40	2
41	8
42	36
43	7
44	217
45	6
50	10
51	48
52	8
53	8
54	2
55	3
56	22
57	5
58	1
61	1
62	4
63	11
64	3
65	9
66	2
67	3
68	2
69	1
70	21
71	6
72	999
73	48
74	3
75	3
76	7
77	70
78	19
79	15
80	2
81	2
87	1
88	1
89	7
90	2
91	7
92	2
93	1
94	1
96	1
102	3
103	13
104	8
105	24
106	8
107	3
108	1
115	1
116	1
117	2
118	3
119	2
120	1
121	4
122	2
130	1
131	6
132	3
133	5
134	4
135	94
136	20
137	2
145	1
146	1
147	5
148	5
149	3
160	1
161	3
162	4
163	9
164	1
176	1
177	1
190	1
191	1
192	5
193	1
205	2
206	2
207	2
