Mass Spectrum: 2,3,6,8-Tetraazabicyclo[3.2.1]octan-3-ene, 6,8-dihydroxy-1-ethyl-4,5,7,7-tetramethyl-
Formula: C10H20N4O2
CAS: 82811-36-7
Molecular weight: 228
m/z	intensity
33	5
37	19
38	53
39	282
40	157
41	484
42	999
43	269
44	65
45	31
46	4
47	0
49	4
50	34
51	66
52	81
53	135
54	141
55	143
56	310
57	223
58	461
59	163
60	10
61	1
62	2
63	7
64	9
65	22
66	44
67	76
68	177
69	53
70	43
71	29
72	15
73	39
74	184
75	10
76	2
77	12
78	4
79	13
80	13
81	31
82	29
83	45
84	36
85	15
86	6
87	5
88	5
89	1
91	8
92	2
93	5
94	10
95	21
96	26
97	31
98	136
99	29
100	21
101	31
102	3
103	1
104	0
105	1
106	1
107	4
108	9
109	21
110	14
111	17
112	8
113	19
114	30
115	9
116	10
117	1
118	0
119	1
120	2
121	8
122	29
123	26
124	16
125	21
126	5
127	4
128	2
129	1
130	0
131	0
133	1
134	3
135	10
136	43
137	21
138	48
139	16
140	8
141	2
142	0
146	0
148	1
149	2
150	4
151	18
152	45
153	117
154	33
155	14
156	15
157	3
158	0
161	3
162	5
163	25
164	13
165	9
166	7
167	4
168	4
169	3
170	3
171	5
172	2
176	0
177	2
178	8
179	9
180	43
181	153
182	17
183	3
184	0
187	0
189	0
191	0
192	0
193	1
194	2
195	8
196	18
197	28
198	9
199	2
200	0
202	0
206	0
209	0
210	1
211	3
212	1
213	0
214	0
226	1
227	2
228	4
229	1
