Mass Spectrum: Carbamic acid, [2-[[1-(diphenoxyphosphinyl)ethyl]amino]-1-methyl-2-oxoethyl]-, phenylmethyl ester
Formula: C25H27N2O6P
CAS: 82818-39-1
Molecular weight: 482
m/z	intensity
27	17
28	11
29	7
37	6
38	12
39	61
40	10
41	17
42	54
43	20
44	240
45	9
47	21
50	20
51	61
52	10
54	4
55	16
56	9
61	8
62	27
63	13
64	149
65	27
69	5
70	144
71	12
72	29
74	6
75	7
76	10
77	163
78	17
79	38
80	4
81	3
82	4
88	27
90	30
91	999
92	121
93	31
94	160
95	27
98	4
99	12
103	5
104	6
105	55
106	7
107	70
109	25
113	24
118	7
119	5
120	8
121	20
130	6
134	177
135	20
136	4
137	16
139	11
140	73
141	66
143	12
149	8
152	4
153	6
162	9
167	8
177	4
178	33
179	5
184	4
185	19
186	5
205	48
206	22
207	4
212	31
213	4
217	12
231	9
233	19
239	13
261	9
262	56
263	10
276	6
277	4
281	71
282	10
302	11
303	3
304	50
305	8
375	9
388	16
389	271
390	63
391	9
482	4
