Mass Spectrum: 1,3-Bis[morpholinomethyl]-tetrahydro-2(1H)-pyrimidinone
Formula: C14H26N4O3
CAS: 82822-17-1
Molecular weight: 298
m/z	intensity
41	45
42	158
43	54
44	40
45	8
47	4
48	2
53	0
54	18
55	19
56	198
57	35
58	9
59	2
60	0
63	9
67	3
68	10
69	20
70	70
71	30
72	20
73	1
77	3
80	0
81	3
82	5
83	13
84	40
85	15
86	122
87	11
88	121
89	5
90	0
91	1
92	0
95	1
96	7
97	13
98	46
99	58
100	999
101	78
102	14
103	0
106	6
109	0
110	0
111	11
112	8
113	79
114	11
115	29
116	3
124	2
125	20
126	268
127	27
128	4
129	0
136	1
138	2
139	3
140	28
141	84
142	7
143	2
145	3
149	0
152	2
153	5
154	7
155	7
156	5
157	0
166	0
167	1
168	3
169	2
170	1
171	3
180	1
181	6
182	3
183	6
184	3
185	0
186	1
195	1
196	1
197	20
198	251
199	29
200	15
201	1
209	1
210	0
211	428
212	50
213	119
214	16
215	2
224	0
225	14
226	2
238	1
239	0
240	4
241	1
242	0
253	0
254	1
255	10
256	1
268	161
269	25
270	2
280	2
298	129
299	26
300	3
