Mass Spectrum: 2-Cycloheptene-1,4-dicarboxylic acid, 6-methylene-, dimethyl ester, cis-
Formula: C12H16O4
CAS: 82823-82-3
Molecular weight: 224
m/z	intensity
26	9
27	130
28	18
29	26
30	6
31	14
33	20
37	2
38	15
39	221
40	39
41	96
42	5
43	21
44	6
45	59
50	24
51	86
52	47
53	85
54	22
55	76
56	5
57	4
58	3
59	283
60	7
61	6
62	6
63	28
64	9
65	82
66	45
67	21
68	13
69	9
71	9
73	2
74	10
75	10
76	6
77	192
78	123
79	202
80	20
81	16
82	6
83	8
84	0
85	6
87	14
88	2
89	8
90	6
91	231
92	36
93	42
94	8
95	8
96	4
97	7
98	8
99	2
101	9
102	7
103	74
104	155
105	999
106	110
107	25
108	5
109	9
110	4
111	32
112	5
113	2
115	9
117	22
118	10
119	36
120	6
121	24
122	7
123	7
124	3
125	10
129	3
130	1
131	53
132	332
133	212
134	20
135	7
136	10
137	10
138	9
139	3
145	2
147	83
148	10
149	40
150	13
151	62
152	6
159	1
160	20
161	4
163	17
164	186
165	211
166	22
169	38
170	3
177	7
191	1
192	178
193	24
194	1
224	3
