Mass Spectrum: 1-Morpholinomethyl-tetrahydro-2(1H)-pyrimidinethione
Formula: C9H17N3OS
CAS: 82822-19-3
Molecular weight: 215
m/z	intensity
41	112
42	149
43	55
44	117
45	29
46	2
47	24
48	10
49	1
50	4
51	33
52	2
53	2
54	31
55	38
56	149
57	31
58	25
59	18
60	29
61	2
62	2
64	1
66	0
67	4
68	13
69	20
70	69
71	58
72	78
73	8
74	11
75	4
76	0
77	0
78	1
79	0
80	0
81	2
82	6
83	21
84	43
85	49
86	117
87	7
88	32
89	1
91	0
93	0
95	1
96	2
97	9
98	69
99	435
100	999
101	78
102	9
103	0
106	1
108	2
109	0
110	1
111	3
112	2
113	6
114	1
115	10
116	55
117	139
118	12
119	6
122	0
123	0
124	4
125	6
126	1
127	3
128	1
129	30
130	67
131	8
132	9
133	0
136	2
138	0
140	10
141	4
142	6
143	4
144	0
145	1
149	1
150	0
152	1
153	0
154	1
155	9
156	2
157	24
158	2
159	5
160	0
170	10
171	9
172	1
182	11
183	1
184	0
185	1
187	0
200	1
213	0
214	9
215	806
216	96
217	47
218	5
