Mass Spectrum: Ethanone, 2-(6-methoxypyrimidin-4-yl)-1-phenyl-
Formula: C13H12N2O2
CAS: 82820-21-1
Molecular weight: 228
m/z	intensity
34	40
36	12
37	16
38	62
39	177
40	33
41	87
42	16
43	10
44	15
45	19
48	1
50	116
51	310
52	69
53	55
54	43
55	109
56	27
57	52
58	20
59	5
60	6
61	4
62	14
63	45
64	45
65	102
66	58
67	34
68	46
69	39
70	22
71	25
72	3
73	10
74	29
75	34
77	999
79	94
80	55
81	43
82	56
83	15
84	12
85	11
86	3
87	11
89	35
90	17
91	134
92	32
93	35
94	11
95	17
96	74
97	14
98	4
99	3
100	12
101	12
102	25
103	50
105	991
106	67
107	9
108	4
109	11
110	39
111	7
112	8
113	7
114	10
115	30
116	13
117	20
118	27
119	16
120	37
121	14
122	9
123	11
124	4
125	5
127	11
128	17
129	21
130	18
131	22
132	1
134	7
135	1
139	15
140	7
141	2
142	11
143	40
144	27
145	56
146	25
149	12
151	148
152	18
153	6
155	12
156	6
157	20
158	9
159	8
167	5
168	1
169	4
170	8
171	6
178	1
184	2
185	12
186	13
187	3
189	3
194	5
195	17
196	4
197	5
198	23
199	203
200	218
201	30
202	2
211	14
213	11
214	2
221	21
227	168
228	157
229	26
230	2
