Mass Spectrum: 1-Dimethylaminocarbonyl-3-(2-ethyl-butanoyl)-urea
Formula: C10H19N3O3
CAS: 82845-36-1
Molecular weight: 229
m/z	intensity
58	78
71	537
72	999
88	29
98	120
99	229
114	219
115	90
130	189
131	89
157	9
158	671
201	120
229	90
