Mass Spectrum: 1-Methyl-1-(pent-3-yl-carbonyl)-urea
Formula: C8H16N2O2
CAS: 82845-38-3
Molecular weight: 172
m/z	intensity
43	540
44	19
71	999
73	69
74	99
98	129
99	289
101	89
129	30
144	218
172	110
