Mass Spectrum: 2-(2-Methyloxyryl)ethoxycarbonylmethoxyiminomethane
Formula: C8H13NO4
CAS: 82874-95-1
Molecular weight: 187
m/z	intensity
27	42
28	182
29	196
30	16
31	70
32	9
41	56
42	70
43	999
44	56
45	588
46	33
54	56
55	57
56	62
57	112
58	84
59	114
60	28
67	35
68	42
69	47
70	57
71	67
73	42
81	21
82	28
83	28
84	56
85	42
86	98
87	33
91	28
96	49
97	42
98	35
99	42
100	70
110	70
111	7
114	76
115	8
124	71
125	9
127	28
128	182
129	28
141	35
142	25
156	28
170	60
171	7
187	28
188	5
