Mass Spectrum: 12-Acetoxydaphnetoxin
Formula: C29H32O10
CAS: 82870-43-7
Molecular weight: 540
m/z	intensity
105	999
253	540
271	360
281	710
289	180
299	260
311	270
317	330
322	190
327	200
340	150
358	140
359	80
418	20
449	30
480	20
481	20
491	110
509	90
540	280
