Mass Spectrum: Bis-(ethoxycarbonyl)methoxymethyloxyiminomethane
Formula: C9H15NO6
CAS: 82874-81-5
Molecular weight: 233
m/z	intensity
28	81
29	132
30	12
31	24
45	999
46	32
59	48
86	16
89	17
115	12
129	18
133	15
143	8
147	14
161	4
175	13
188	15
203	8
233	6
