Mass Spectrum: 3-(4-Ethoxyphenyl)-4-hydroxy-4,6,6-trimethyl-hexahydropyrimidin-2-thione
Formula: C15H22N2O2S
CAS: 82899-19-2
Molecular weight: 294
m/z	intensity
39	190
40	75
41	320
42	200
43	999
44	240
45	230
46	20
50	30
51	50
52	65
53	110
54	50
55	250
56	120
57	140
58	49
59	56
60	75
61	30
62	10
63	44
64	55
65	150
66	39
67	84
68	54
69	85
70	60
71	53
72	15
73	61
74	25
75	20
76	32
77	110
78	71
79	140
80	63
81	150
82	120
83	100
84	36
85	41
87	15
89	25
90	44
91	70
92	38
93	72
94	54
95	40
96	37
97	39
98	60
99	34
100	56
101	15
102	14
103	20
104	37
105	100
106	45
107	140
108	90
109	56
110	19
111	33
112	26
113	14
115	25
116	27
117	43
118	30
119	52
120	25
121	35
122	18
123	24
124	13
125	31
126	20
127	16
128	15
129	19
130	20
131	30
132	42
133	220
134	750
135	85
136	25
137	37
138	10
139	8
140	21
141	9
143	15
144	16
145	22
146	30
147	19
148	35
149	78
150	15
151	20
152	13
153	14
154	22
155	10
157	13
158	15
159	14
160	16
161	37
162	980
163	150
164	34
165	10
166	28
167	31
171	15
172	16
173	29
174	61
175	30
176	25
177	23
178	9
179	19
188	45
189	16
199	15
200	21
201	23
202	48
203	40
204	25
205	13
215	10
216	24
217	30
218	35
219	8
229	49
230	8
231	9
232	10
233	45
234	10
247	27
259	10
260	94
261	450
262	100
263	28
275	27
276	250
277	49
278	20
279	7
294	150
295	27
296	9
297	1
