Mass Spectrum: 3-(4-Bromophenyl)-4-hydroxy-4,6,6-trimethyl-hexahydropyrimidin-2-thione
Formula: C13H17BrN2OS
CAS: 82899-23-8
Molecular weight: 328
m/z	intensity
39	110
40	26
41	250
42	82
43	999
44	140
45	220
46	10
47	3
48	1
49	2
50	37
51	25
52	12
53	42
54	23
55	150
56	110
57	86
58	52
59	11
60	51
61	18
62	16
63	78
64	39
65	41
66	15
67	35
68	16
69	50
70	27
71	32
72	12
73	39
74	16
75	56
76	64
77	30
78	8
79	23
80	11
81	40
82	24
83	62
84	20
85	25
86	3
87	10
88	10
89	22
90	220
91	47
92	18
93	18
94	6
95	19
96	14
97	24
98	28
99	200
100	41
101	7
102	28
103	5
104	6
105	14
106	2
107	14
108	17
109	14
110	6
111	12
112	5
113	5
114	4
115	14
116	41
117	97
118	23
119	10
120	4
121	3
122	5
123	10
124	4
125	4
126	3
127	4
128	4
129	14
130	14
131	11
132	5
133	8
134	16
135	5
136	3
137	3
138	2
139	2
140	2
141	4
142	3
143	24
144	5
145	22
146	2
147	2
148	3
149	35
150	24
151	15
152	5
153	2
154	2
155	41
156	4
157	37
158	10
159	3
160	2
161	2
162	14
163	5
166	5
169	27
170	11
171	89
172	16
173	61
174	6
175	4
195	30
196	900
197	110
198	890
199	84
200	6
201	4
202	5
203	4
213	11
214	3
215	17
216	4
217	5
218	5
229	15
236	5
237	17
238	17
239	16
240	11
294	50
295	41
296	55
297	42
310	19
311	6
312	18
313	3
328	22
329	4
330	23
331	4
332	1
