Mass Spectrum: 4-Hydroxy-3-(3-methoxyphenyl)-4,6,6-trimethyl-hexahydropyrimidin-2-thione
Formula: C14H20N2O2S
CAS: 82899-21-6
Molecular weight: 280
m/z	intensity
39	270
40	16
41	370
42	180
43	999
44	230
45	78
47	6
50	33
51	49
52	20
53	86
54	57
55	210
56	39
57	120
58	160
59	35
60	39
62	6
63	31
64	71
65	24
66	12
72	8
73	6
76	10
77	170
78	18
80	18
81	180
82	160
83	120
84	98
85	100
89	2
90	10
91	59
92	120
93	4
94	31
99	47
100	55
101	20
107	310
108	53
118	6
119	8
122	27
123	53
130	14
131	18
132	10
134	4
143	4
144	6
145	14
146	16
147	39
148	60
149	39
151	8
162	73
163	22
164	4
165	45
166	27
167	14
171	8
172	8
173	19
181	75
182	14
188	67
189	16
199	19
202	19
203	12
204	16
205	12
215	35
217	12
221	12
231	18
232	25
247	530
248	90
249	30
261	84
262	310
263	59
264	19
279	6
280	37
281	7
282	2
