Mass Spectrum: 4-Hexenoic acid, 2,5-dimethyl-
Formula: C8H14O2
CAS: 82898-13-3
Molecular weight: 142
m/z	intensity
26	3
27	57
28	17
29	42
30	4
31	2
38	4
39	72
40	15
41	420
42	23
43	39
44	2
45	15
50	4
51	14
52	4
53	46
54	12
55	93
56	56
57	15
59	9
63	3
65	11
66	3
67	39
68	21
69	999
70	60
71	18
72	2
73	25
74	137
75	5
77	12
78	2
79	14
80	2
81	65
82	14
83	4
85	8
87	36
91	3
96	26
97	28
98	2
109	14
124	8
125	3
127	3
142	215
143	21
