Mass Spectrum: Phosphine, diphenyl-
Formula: C12H11P
CAS: 829-85-6
Molecular weight: 186
m/z	intensity
26	1
27	7
28	0
37	0
38	2
39	30
40	4
41	2
44	0
45	0
50	15
51	49
52	7
53	1
56	12
57	31
58	1
61	0
62	3
63	14
64	3
65	19
66	1
68	4
69	8
70	1
71	1
72	0
74	6
75	4
76	7
77	18
78	9
79	2
80	14
81	30
82	16
83	25
84	1
85	5
86	0
87	1
88	0
89	5
90	2
91	29
92	79
93	40
94	1
95	0
98	0
101	1
102	4
103	0
104	4
105	2
107	455
108	999
109	112
110	4
113	1
114	0
115	21
116	2
119	0
120	3
121	0
125	0
126	3
127	2
128	6
129	0
131	3
132	1
133	19
134	1
139	9
140	1
141	5
142	1
144	3
145	2
146	1
150	1
151	6
152	54
153	13
154	11
155	1
156	0
157	29
158	3
159	2
168	0
169	2
170	16
171	7
172	0
173	1
180	1
181	10
182	3
183	219
184	31
185	38
186	923
187	149
188	9
