Mass Spectrum: Phosphine, dicyclohexyl-
Formula: C12H23P
CAS: 829-84-5
Molecular weight: 198
m/z	intensity
14	2
15	1
26	3
27	49
28	29
29	67
30	2
35	24
36	1
38	2
39	75
40	8
41	346
42	17
43	35
44	5
45	33
46	2
47	13
48	6
49	16
50	3
51	10
52	6
53	64
54	47
55	637
56	33
57	37
58	9
59	31
60	7
61	56
62	9
63	4
64	1
65	12
66	10
67	132
68	15
69	14
70	3
71	28
72	6
73	60
74	38
75	25
76	4
77	23
78	9
79	55
80	19
81	197
82	179
83	999
84	71
85	14
86	8
87	44
88	40
89	8
90	2
91	3
93	1
94	1
95	2
96	1
97	4
99	8
100	6
101	18
102	6
103	1
104	2
105	1
108	1
109	2
111	2
113	9
114	22
115	140
116	255
117	795
118	52
119	2
127	2
128	6
129	4
130	6
131	2
132	18
133	16
134	1
141	6
142	7
143	165
144	14
149	1
155	12
156	18
157	51
158	5
159	8
169	20
170	4
173	1
183	83
184	9
185	1
196	1
197	27
198	248
199	36
200	2
