Mass Spectrum: Benzene, 1-heptenyl-
Formula: C13H18
CAS: 829-99-2
Molecular weight: 174
m/z	intensity
41	70
42	10
44	10
50	10
51	50
52	10
53	30
54	10
55	50
56	10
57	10
62	20
63	30
64	10
65	50
66	20
67	30
75	10
76	10
77	50
78	40
79	20
81	20
82	20
83	30
89	30
91	260
92	80
96	20
102	30
103	40
104	840
105	100
106	20
115	260
116	80
117	999
118	140
119	10
127	10
128	40
129	50
130	30
131	60
132	30
143	10
145	10
174	310
175	60
