Mass Spectrum: Butanedinitrile, 2,3-diamino-2,3-dimethyl-
Formula: C6H10N4
CAS: 82929-43-9
Molecular weight: 138
m/z	intensity
25	2
26	22
27	57
28	98
29	8
30	14
31	2
37	4
38	12
39	24
40	60
41	122
42	394
43	301
44	23
45	2
49	1
50	4
51	21
52	76
53	97
54	62
55	29
56	3
57	3
58	18
59	2
60	0
61	0
62	0
63	2
64	3
65	3
66	13
67	16
68	21
69	999
70	394
71	23
72	0
74	1
75	1
76	2
77	3
78	2
79	10
80	4
81	6
82	1
83	1
84	2
85	3
86	2
88	1
89	0
90	0
91	1
92	0
93	2
94	1
95	14
96	8
97	3
105	0
106	2
107	1
108	1
109	2
110	4
111	1
112	21
113	1
115	1
122	0
123	1
138	3
139	0
