Mass Spectrum: 10,10-Dimethyl-N-phenyl-3,4-diazatricyclo[5.2.1.0(1,5)]decane-3,4-dicarboximide
Formula: C18H21N3O2
CAS: 82934-21-2
Molecular weight: 311
m/z	intensity
26	17
27	276
28	165
29	265
30	60
31	22
38	27
39	293
40	102
41	999
42	124
43	322
44	32
45	14
50	17
51	92
52	63
53	313
54	112
55	399
56	177
57	58
59	10
63	53
64	146
65	160
66	198
67	438
68	203
69	665
70	150
71	224
72	10
75	15
76	10
77	431
78	90
79	598
80	153
81	154
82	73
83	26
84	19
85	22
89	11
90	44
91	659
92	173
93	763
94	374
95	142
96	74
97	35
98	15
103	15
104	14
105	101
106	151
107	431
108	99
109	107
110	16
111	16
117	11
118	12
119	566
120	176
121	300
122	73
123	72
124	45
125	17
133	19
134	163
135	293
136	52
137	23
149	30
150	28
151	17
163	15
164	10
177	70
178	58
190	58
191	21
204	27
241	15
242	120
243	177
244	32
296	11
311	411
312	91
313	11
