Mass Spectrum: 2-(2-Butoxyethoxy)acetic acid
Formula: C8H16O4
CAS: 82941-26-2
Molecular weight: 176
m/z	intensity
14	2
15	12
16	1
19	6
26	12
27	100
28	101
29	302
30	21
31	141
32	3
33	2
37	1
38	2
39	57
40	9
41	344
42	50
43	83
44	59
45	473
46	14
47	3
49	8
50	2
51	3
52	1
53	7
54	3
55	56
56	217
57	999
58	64
59	46
60	135
61	77
62	2
63	4
67	1
69	7
70	2
71	37
72	15
73	31
74	8
75	53
76	28
77	35
82	1
83	1
84	1
85	126
86	10
87	131
88	8
89	18
90	3
91	2
99	1
100	74
101	10
102	64
103	178
104	43
105	4
117	3
119	1
120	4
121	2
131	6
132	1
133	6
