Mass Spectrum: 9-Borabicyclo[3.3.1]nonan-9-ol, TMS  derivative
Formula: C11H23BOSi
CAS: 82954-94-7
Molecular weight: 210
m/z	intensity
29	1
31	31
43	117
44	46
45	270
46	25
47	6
50	7
51	4
52	7
53	7
57	23
58	65
59	303
60	25
61	10
63	5
65	16
66	5
67	28
69	5
71	49
72	216
73	999
74	92
76	29
77	23
78	10
79	55
80	38
81	38
85	237
86	64
87	88
88	4
91	25
92	18
93	33
94	54
95	37
96	29
97	65
99	218
100	331
101	916
102	85
103	35
107	17
108	129
109	56
110	16
111	214
112	90
113	264
114	917
115	188
116	47
120	17
121	26
122	15
123	18
124	29
125	312
126	155
127	542
128	114
129	58
131	3
137	16
138	34
139	222
140	356
141	160
142	29
143	14
147	29
148	1
150	58
151	11
152	29
153	299
154	99
155	80
156	44
161	7
165	8
166	39
167	114
168	525
169	236
170	49
177	0
181	22
182	15
189	5
194	32
195	137
196	26
203	5
205	9
207	11
208	2
209	253
210	974
211	172
212	38
