Mass Spectrum: 1,2-Benzenedisulfonic acid, dimethyl ester
Formula: C8H10O6S2
CAS: 82975-59-5
Molecular weight: 266
m/z	intensity
26	2
27	19
29	102
30	25
31	23
33	0
34	1
37	4
38	30
39	72
40	39
41	14
42	1
43	2
44	0
45	15
46	1
47	2
48	13
49	4
50	338
51	152
52	67
53	14
54	1
55	8
56	0
57	1
58	7
59	8
60	0
61	2
62	13
63	130
64	141
65	56
66	9
67	9
68	0
69	30
70	27
71	4
72	1
73	6
74	75
75	102
76	237
77	999
78	492
79	657
80	79
81	38
82	5
83	3
84	12
85	1
86	0
87	0
89	1
90	2
91	10
92	280
93	29
94	48
95	71
96	17
97	18
98	2
99	1
100	1
102	1
105	10
106	6
107	19
108	43
109	7
110	2
111	3
112	3
113	2
114	0
115	0
119	0
120	0
121	0
122	1
123	57
124	4
125	18
126	2
127	3
128	1
129	0
133	0
135	0
137	1
138	0
139	3
140	31
141	102
142	743
143	58
144	32
145	2
146	0
147	0
149	1
152	0
155	0
156	65
157	4
158	10
159	1
160	0
169	1
170	0
171	9
172	449
173	43
174	24
175	1
177	0
182	0
185	1
186	1
188	1
189	0
191	0
199	0
201	0
204	0
205	0
217	0
218	0
219	4
220	0
221	4
222	1
223	0
233	0
235	389
236	188
237	57
238	17
239	3
240	0
250	0
251	0
266	6
267	0
268	0
