Mass Spectrum: 2H-Indazole-2-hydroxy, 3-methyl-
Formula: C8H8N2O
CAS: 82979-91-7
Molecular weight: 148
m/z	intensity
33	5
34	3
36	6
37	80
38	149
39	294
40	92
41	55
42	83
43	156
44	75
45	10
46	3
47	1
48	3
49	39
50	260
51	568
52	216
53	50
54	11
55	11
56	3
57	5
58	7
59	13
60	9
61	53
62	127
63	288
64	147
65	200
66	56
67	8
68	2
69	4
70	2
71	2
72	6
73	23
74	176
75	125
76	211
77	999
78	251
79	278
80	20
81	2
82	2
83	2
84	2
85	6
86	14
87	28
88	30
89	139
90	134
91	320
92	55
93	6
94	1
95	1
96	1
97	4
98	11
99	6
100	5
101	53
102	193
103	208
104	113
105	226
106	51
107	6
108	1
109	1
110	1
111	1
112	1
113	0
114	4
115	6
116	53
117	145
118	35
119	19
120	6
121	4
122	0
125	0
126	0
129	5
131	389
132	314
133	89
134	7
135	1
136	1
139	1
141	0
143	0
145	1
146	9
148	841
149	78
150	5
151	0
