Mass Spectrum: Propanamide, 2,3,3,3-tetrafluoro-2-heptafluoropropoxy-N-benzyl-
Formula: C13H8F11NO2
CAS: 82970-41-0
Molecular weight: 419
m/z	intensity
33	2
34	4
36	5
37	2
38	10
39	64
40	73
41	28
42	9
43	34
44	47
45	4
46	5
47	7
49	0
50	36
51	71
52	20
53	5
54	5
55	11
56	6
57	10
58	1
61	1
62	6
63	26
64	9
65	89
66	7
67	11
69	159
70	4
71	3
72	0
73	0
74	5
75	8
76	10
77	67
78	32
79	32
80	2
81	4
82	1
83	4
84	0
85	1
89	25
91	999
92	75
93	5
94	1
95	1
96	1
97	5
98	0
99	3
100	26
101	2
102	1
103	4
104	48
105	33
106	15
107	22
108	3
109	16
110	1
111	2
112	1
113	0
116	3
117	3
118	1
119	18
120	2
121	6
122	0
127	5
128	3
129	1
131	1
132	11
133	15
134	18
135	2
136	2
137	0
138	0
140	0
146	0
148	0
149	0
150	1
151	3
152	1
163	1
164	7
169	54
170	1
171	6
177	1
181	3
190	8
191	3
196	0
202	0
204	0
214	3
230	7
231	4
232	6
233	4
234	24
235	2
350	1
419	37
420	4
