Mass Spectrum: N-Acetyl-S-(3-oxocycloheptyl)-l-cysteine methyl ester
Formula: C13H21NO4S
CAS: 82971-48-0
Molecular weight: 287
m/z	intensity
39	20
41	180
42	50
43	300
44	60
45	10
53	20
54	20
55	530
56	30
57	10
59	30
60	160
61	10
65	10
67	70
68	20
69	90
70	20
71	10
73	10
74	20
75	10
76	70
77	10
79	10
81	70
82	20
83	340
84	60
85	30
86	280
87	40
88	180
89	10
91	130
92	120
93	130
95	20
97	10
99	30
100	10
101	20
102	50
109	20
110	50
111	999
112	110
113	30
114	10
116	10
117	70
118	100
119	20
126	10
134	90
135	30
136	10
142	10
143	20
144	80
145	130
146	20
153	10
156	70
158	20
162	10
163	40
167	10
168	20
169	20
176	70
177	320
178	70
179	20
186	10
195	120
196	100
197	10
210	10
227	10
228	130
229	20
256	10
269	220
270	30
271	10
287	40
288	10
