Mass Spectrum: 1,8-Naphthosultone
Formula: C10H6O3S
CAS: 83-31-8
Molecular weight: 206
m/z	intensity
26	14
27	18
29	5
33	0
34	1
36	0
37	23
38	50
39	84
40	5
43	22
44	19
45	11
46	0
48	38
49	11
50	66
51	57
52	6
53	6
54	2
55	16
57	128
59	1
60	4
61	43
62	168
63	198
64	68
65	7
66	3
67	3
69	16
70	2
71	3
72	2
73	11
74	71
75	55
76	21
77	5
80	0
81	0
82	2
83	0
84	4
85	26
86	76
87	123
88	206
89	24
90	9
91	0
92	1
93	5
94	1
95	1
96	0
97	1
98	7
99	5
100	2
101	5
102	33
103	26
105	0
106	0
107	0
108	5
109	5
110	10
111	7
113	234
114	999
115	123
116	7
117	2
118	2
119	1
120	0
121	0
122	0
123	0
125	0
126	4
127	0
128	1
129	0
130	4
131	0
132	0
133	2
134	10
135	1
136	0
137	0
138	0
142	511
143	58
144	5
145	3
146	0
157	0
158	1
159	0
160	0
161	0
162	3
163	0
164	0
166	0
169	0
174	0
175	0
190	1
191	0
206	486
207	60
208	29
209	2
210	0
