Mass Spectrum: Quinacrine
Formula: C23H30ClN3O
CAS: 83-89-6
Molecular weight: 399
m/z	intensity
15	9
26	5
27	27
28	54
29	68
30	142
31	2
39	17
40	3
41	80
42	68
43	20
44	36
45	1
46	1
50	4
51	6
52	5
53	8
54	8
55	18
56	78
57	21
58	176
59	6
61	1
62	3
63	8
64	2
65	3
66	2
67	6
68	9
69	34
70	29
71	39
72	45
73	77
74	10
75	7
76	4
77	4
78	2
79	1
80	3
81	2
82	8
83	8
84	76
85	14
86	999
87	60
88	3
89	3
90	3
91	1
93	1
94	2
95	1
96	7
97	6
98	41
99	129
100	15
101	3
102	4
103	3
110	6
111	5
112	152
113	40
114	10
115	2
116	1
117	1
121	2
122	2
123	2
124	4
125	6
126	346
127	33
128	3
129	3
130	1
135	2
136	3
137	6
138	6
139	5
140	80
141	19
142	38
143	5
147	1
148	1
149	2
150	4
151	5
152	8
153	5
154	2
155	2
161	2
162	3
163	5
164	25
165	11
166	6
167	2
172	1
173	5
174	6
175	3
176	4
177	8
178	7
179	15
180	8
181	3
182	1
185	1
186	2
187	8
188	4
189	4
190	3
191	4
192	22
193	9
194	5
195	1
198	2
199	10
200	50
201	13
202	17
203	5
204	2
205	3
206	3
207	6
208	3
209	3
210	1
211	1
212	3
213	5
214	12
215	27
216	10
217	10
218	5
219	3
220	2
221	1
226	3
227	8
228	12
229	10
230	7
231	4
232	2
233	3
234	3
235	5
236	2
237	1
238	1
239	7
240	7
241	9
242	20
243	68
244	61
245	31
246	18
247	5
248	2
249	4
250	7
251	3
252	4
253	8
254	22
255	12
256	12
257	64
258	60
259	152
260	42
261	45
262	8
263	2
264	1
265	2
266	4
267	9
268	9
269	16
270	17
271	18
272	9
273	6
274	2
275	2
278	2
279	4
280	4
281	4
282	6
283	24
284	15
285	53
286	14
287	15
288	4
291	3
292	2
293	3
294	3
295	6
296	4
297	12
298	18
299	29
300	10
301	9
302	2
309	9
310	4
311	38
312	9
313	21
314	5
315	4
316	1
322	3
323	2
324	9
325	31
326	44
327	33
328	21
329	9
330	3
369	1
370	16
371	5
372	6
373	1
384	6
385	2
386	2
397	1
398	2
399	148
400	40
401	52
402	13
403	2
