Mass Spectrum: 3-Hydroxy-1,7-dioxaspiro[5.5]undecane
Formula: C9H16O3
CAS: 83015-81-0
Molecular weight: 172
m/z	intensity
39	60
41	130
42	70
43	290
44	80
45	320
53	30
54	40
55	240
56	110
57	60
58	40
59	40
66	20
70	70
71	70
73	40
83	160
89	80
96	80
97	30
98	999
99	160
100	50
101	250
111	40
114	130
116	50
117	130
127	50
141	120
142	100
143	10
144	10
172	30
