Mass Spectrum: Atomoxetine
Formula: C17H21NO
CAS: 83015-26-3
Molecular weight: 255
m/z	intensity
15	3
18	6
26	1
27	8
28	15
29	3
30	5
37	1
38	2
39	19
40	2
41	7
42	48
43	19
44	999
45	26
50	7
51	22
52	11
53	10
54	2
55	1
56	5
57	2
58	1
62	2
63	9
64	2
65	23
66	2
68	2
69	1
70	6
74	2
75	2
76	3
77	70
78	38
79	22
80	5
81	1
89	10
90	8
91	47
92	4
101	1
102	5
103	29
104	51
105	10
106	1
107	38
108	49
109	4
115	20
116	4
117	13
118	16
119	4
120	2
128	1
129	1
130	3
131	2
132	6
133	1
141	1
144	5
145	1
146	13
147	4
148	57
149	13
150	2
151	30
152	5
153	1
154	2
164	1
165	2
167	1
169	1
178	1
179	1
195	1
197	1
255	12
256	3
