Mass Spectrum: Phosphine, dichloro-D-menthyl-
Formula: C10H19Cl2P
CAS: 83021-21-0
Molecular weight: 240
m/z	intensity
26	0
27	44
29	49
30	0
35	0
36	4
38	1
39	36
40	10
41	157
42	7
43	113
44	3
45	2
47	0
50	0
51	5
52	2
53	24
54	13
55	405
56	18
57	307
58	11
59	1
62	1
63	0
65	7
66	2
67	44
68	8
69	288
70	15
71	37
72	1
73	0
75	0
77	10
78	2
79	15
80	3
81	89
82	10
83	999
84	60
85	3
86	0
87	0
91	5
92	0
93	6
94	2
95	40
96	6
97	134
98	9
99	1
100	0
101	6
103	4
105	0
106	0
107	1
108	0
109	2
110	0
111	0
113	1
119	0
121	0
123	7
124	0
125	0
127	0
129	2
131	1
133	0
135	0
137	4
138	3
139	180
140	18
141	0
147	0
149	0
155	0
157	0
161	0
163	0
169	0
171	0
183	0
185	0
197	0
199	0
205	2
207	0
225	0
227	0
239	1
240	41
241	5
242	25
243	3
244	3
245	0
