Mass Spectrum: 1-[(2-Thienylcarbonyl)oxy]-2,5-pyrrolidinedione
Formula: C9H7NO4S
CAS: 83039-60-5
Molecular weight: 225
m/z	intensity
27	25
28	4
39	160
40	20
42	16
45	18
55	16
56	37
57	35
70	23
81	9
82	15
83	49
84	7
98	18
111	999
112	138
113	54
225	14
