Mass Spectrum: 1-[(2-Pyridinylcarbonyl)oxy]-2,5-pyrrolidinedione
Formula: C10H8N2O4
CAS: 83039-59-2
Molecular weight: 220
m/z	intensity
51	53
52	16
55	25
56	30
67	20
70	27
78	899
79	62
95	33
98	19
106	999
107	70
220	36
221	12
