Mass Spectrum: 2,5-Pyrrolidinedione, 1-[(4-methylbenzoyl)oxy]-
Formula: C12H11NO4
CAS: 83039-57-0
Molecular weight: 233
m/z	intensity
40	8
41	21
42	23
45	1
50	19
51	31
52	7
53	4
55	6
56	39
61	1
62	11
63	40
64	11
65	183
66	9
70	17
74	2
75	2
76	2
77	8
78	1
79	1
84	2
86	1
87	1
89	38
90	24
91	342
92	26
105	7
117	1
119	999
120	74
121	5
133	2
233	1
