Mass Spectrum: Cyclopentanone, 3-(6,6-dimethyl-5-oxo-2-heptenyl)-, (E)-
Formula: C14H22O2
CAS: 83040-98-6
Molecular weight: 222
m/z	intensity
26	4
27	67
28	32
29	195
30	5
31	2
36	0
37	1
38	3
39	108
40	19
41	355
42	37
43	50
44	8
45	7
46	0
50	3
51	13
52	10
53	69
54	60
55	194
56	31
57	999
58	87
59	6
60	0
61	0
62	0
63	3
64	1
65	19
66	16
67	105
68	17
69	48
70	13
71	11
72	1
73	2
74	1
75	1
76	1
77	32
78	10
79	74
80	51
81	75
82	46
83	343
84	26
85	392
86	28
87	3
88	0
89	1
90	0
91	38
92	9
93	52
94	26
95	196
96	103
97	18
98	3
99	4
100	6
101	2
102	1
103	3
104	2
105	24
106	5
107	13
108	4
109	112
110	21
111	7
112	1
113	1
114	1
115	2
116	1
117	5
118	2
119	57
120	57
121	22
122	72
123	38
124	5
125	4
126	5
127	4
128	1
129	3
130	1
131	2
132	0
133	3
134	1
135	6
136	4
137	61
138	86
139	54
140	60
141	9
142	1
143	1
144	0
145	3
146	1
147	30
148	5
149	5
150	1
151	1
152	1
153	0
154	0
155	1
156	0
157	0
159	1
161	4
162	1
163	2
164	3
165	133
166	19
167	22
168	3
169	0
170	0
171	1
172	0
176	0
177	0
178	0
179	2
180	1
181	1
182	0
183	0
184	0
185	1
186	0
187	1
188	0
189	4
190	1
191	0
192	0
193	1
195	3
196	0
200	0
201	0
202	1
203	5
204	7
205	1
206	2
207	0
221	30
222	63
223	10
224	1
