Mass Spectrum: 3,3-Dimethyl-1-(1-oxa-spiro[4.5]dec-2-yl)-butan-2-one
Formula: C15H26O2
CAS: 83041-31-0
Molecular weight: 238
m/z	intensity
26	5
27	57
28	9
29	180
30	5
31	7
38	3
39	70
40	15
41	285
42	53
43	73
44	7
45	5
50	3
51	9
52	5
53	41
54	28
55	286
56	34
57	999
58	54
59	15
65	12
66	9
67	100
68	24
69	77
70	35
71	24
72	3
73	4
76	3
77	23
78	7
79	75
80	21
81	132
82	74
83	97
84	11
85	729
86	48
87	6
90	3
91	23
92	8
93	69
94	47
95	153
96	40
97	31
98	36
99	62
100	18
101	8
102	2
103	3
104	5
105	10
106	4
107	15
108	7
109	27
110	28
111	115
112	25
113	8
115	5
117	3
118	3
119	11
120	26
121	287
122	31
123	19
124	5
125	16
126	10
127	12
128	3
129	7
131	3
132	2
133	4
134	4
135	26
136	8
137	12
138	245
139	224
140	31
141	12
142	409
143	58
144	6
145	5
147	7
148	2
153	10
154	7
155	9
156	15
157	3
161	3
162	2
163	36
164	5
165	2
167	7
168	4
169	3
170	3
171	3
179	2
181	94
182	15
183	4
185	2
186	4
195	171
196	27
197	5
205	3
209	15
210	3
220	28
221	6
222	2
223	5
238	32
239	8
240	2
