Mass Spectrum: 7-(1-Hydroxy-cyclohept-2-enyl)-2,2-dimethyl-hept-5-en-3-one
Formula: C16H26O2
CAS: 83040-96-4
Molecular weight: 250
m/z	intensity
26	1
27	45
28	11
29	125
30	3
31	2
38	2
39	83
40	16
41	255
42	22
43	56
44	8
45	3
50	4
51	19
52	12
53	54
54	25
55	156
56	15
57	999
58	52
59	5
62	2
63	8
64	4
65	49
66	24
67	165
68	30
69	67
70	13
71	15
75	2
76	3
77	123
78	46
79	203
80	34
81	134
82	26
83	58
84	10
85	143
86	17
87	4
89	5
90	3
91	299
92	52
93	183
94	27
95	31
96	9
97	14
98	15
99	4
100	4
101	4
102	2
103	15
104	33
105	151
106	31
107	127
108	94
109	45
110	12
111	442
112	36
113	6
115	18
116	8
117	64
118	18
119	62
120	16
121	15
122	12
123	18
124	56
125	16
126	42
127	9
128	7
129	19
130	11
131	43
132	122
133	90
134	11
135	7
137	28
138	11
139	10
140	10
141	4
142	22
143	7
144	2
145	13
146	17
147	293
148	44
149	10
150	48
151	30
152	4
155	2
157	15
158	3
159	2
163	2
165	12
166	14
167	4
169	2
170	2
173	4
175	78
176	12
177	2
179	2
189	2
190	2
193	13
194	2
195	1
199	2
200	2
204	3
205	1
210	2
215	2
217	6
221	5
230	2
232	137
233	28
234	4
250	29
251	6
