Mass Spectrum: 7-(1-Hydroxy-cyclohex-2-enyl)-2,2-dimethyl-hept-5-en-3-one
Formula: C15H24O2
CAS: 83040-94-2
Molecular weight: 236
m/z	intensity
26	3
27	42
28	9
29	102
30	3
31	6
38	3
39	60
40	17
41	212
42	22
43	68
44	7
45	4
50	4
51	15
52	8
53	35
54	20
55	120
56	14
57	569
58	31
59	7
62	2
63	5
64	3
65	23
66	11
67	96
68	47
69	49
70	10
71	20
72	2
73	2
74	2
75	3
76	3
77	70
78	26
79	164
80	22
81	33
82	16
83	72
84	13
85	147
86	32
87	5
89	3
90	1
91	156
92	57
93	63
94	80
95	51
96	20
97	999
98	81
99	9
100	3
101	3
102	2
103	7
104	7
105	52
106	24
107	20
108	15
109	24
110	6
111	9
112	2
113	3
115	10
116	4
117	33
118	18
119	80
120	11
121	6
122	3
123	9
124	9
125	5
126	7
127	7
128	7
129	17
130	4
131	11
132	7
133	111
134	31
135	7
136	17
137	28
138	3
139	4
140	25
141	5
142	27
143	11
144	3
161	32
162	6
178	1
179	9
184	9
185	4
186	2
189	13
190	17
191	3
208	12
218	28
219	9
220	2
236	3
