Mass Spectrum: 6-Hydroxy-7-methyl-oct-3-enedithioic acid, isopropyl ester
Formula: C12H22OS2
CAS: 83041-08-1
Molecular weight: 246
m/z	intensity
26	6
27	158
28	6
29	113
30	5
31	17
33	4
35	8
36	6
38	7
39	119
40	25
41	671
42	75
43	882
44	52
45	93
46	10
47	43
48	5
49	7
50	4
51	10
52	7
53	67
54	34
55	419
56	119
57	154
58	99
59	172
60	26
61	42
62	7
63	9
64	6
65	82
66	24
67	139
68	52
69	926
70	98
71	175
72	19
73	79
74	26
75	76
76	55
77	64
78	11
79	30
80	14
81	42
82	31
83	543
84	76
85	122
86	44
87	42
88	7
89	16
90	5
91	31
92	255
93	79
94	37
95	999
96	93
97	143
98	35
99	229
100	37
101	56
102	14
103	62
104	11
105	13
106	7
107	21
108	12
109	90
110	25
111	777
112	139
113	178
114	18
115	21
116	39
117	97
118	46
119	59
120	14
121	16
122	14
123	17
124	7
125	13
126	20
127	113
128	28
129	153
130	70
131	68
132	60
133	34
134	104
135	40
136	16
137	29
138	9
139	20
140	7
141	101
142	35
143	21
144	8
145	68
146	10
147	53
148	13
149	24
150	8
151	35
152	13
153	19
154	7
155	16
157	7
158	14
159	11
160	43
161	27
162	8
163	9
169	63
170	189
171	395
172	78
173	36
174	11
175	23
176	5
177	5
184	22
185	223
186	45
187	26
188	6
189	8
199	2
200	4
201	5
202	70
203	691
204	99
205	74
206	11
207	6
212	30
213	49
214	9
215	6
219	7
228	40
229	8
230	7
231	6
244	61
245	18
246	222
247	37
248	24
249	6
