Mass Spectrum: 2-Propanone, 1-(tetrahydro-5-phenyl-2H-pyran-2-yl)-
Formula: C14H18O2
CAS: 83041-34-3
Molecular weight: 218
m/z	intensity
27	28
28	11
29	23
31	7
38	3
39	54
40	7
41	51
42	9
43	411
44	15
45	6
50	11
51	43
52	14
53	19
54	9
55	35
56	7
57	12
58	19
59	7
62	4
63	19
64	7
65	50
66	7
67	14
68	6
69	21
70	5
71	24
72	17
74	5
75	6
76	11
77	86
78	115
79	31
80	5
81	22
82	23
83	23
84	83
85	33
86	4
87	11
89	17
90	7
91	417
92	47
93	6
94	5
95	13
96	4
97	30
98	11
99	39
100	138
101	28
102	22
104	999
105	130
106	10
107	13
109	6
113	14
114	8
115	95
116	29
117	204
118	294
119	44
120	13
121	15
122	4
123	12
127	68
128	41
129	95
130	123
131	49
132	22
133	11
134	8
135	4
139	4
140	7
141	23
142	254
143	83
144	16
145	17
146	5
147	5
155	5
156	17
157	57
158	11
159	13
160	80
161	39
162	5
163	8
170	4
171	5
172	4
173	3
174	4
175	3
185	12
186	5
188	24
189	7
200	42
201	8
203	50
204	8
217	4
218	26
219	6
