Mass Spectrum: 6-Hydroxy-7,7-dimethyl-oct-3-enedithioic acid, isopropyl ester
Formula: C13H24OS2
CAS: 83041-09-2
Molecular weight: 260
m/z	intensity
27	151
28	19
29	192
30	4
31	6
34	4
35	5
38	6
39	146
40	23
41	734
42	78
43	817
44	39
45	89
46	7
47	39
51	8
52	4
53	65
54	19
55	576
56	75
57	489
58	101
59	150
60	22
61	40
65	76
66	18
67	211
68	37
69	348
70	90
71	145
72	14
73	32
74	19
75	61
76	40
77	63
78	7
79	27
80	6
81	67
82	36
83	999
84	115
85	149
86	21
87	52
88	4
89	9
90	4
91	34
92	254
93	59
94	31
95	42
96	20
97	882
98	87
99	464
100	92
101	129
102	20
103	148
104	13
105	28
106	4
107	265
108	44
109	743
110	85
111	148
112	15
113	42
114	8
115	25
116	50
117	121
118	49
119	88
120	10
121	23
122	9
123	57
124	24
125	654
126	146
127	326
128	44
129	142
130	50
131	75
132	55
133	57
134	164
135	57
136	23
137	9
139	10
140	14
141	200
142	38
143	31
144	6
145	46
146	9
147	163
148	24
149	43
150	8
151	29
152	4
153	19
155	10
157	8
158	7
159	28
160	52
161	54
162	12
163	5
165	75
166	11
167	22
169	82
170	9
171	24
172	32
173	12
174	12
175	84
176	15
177	9
183	60
184	130
185	583
186	105
187	50
188	9
189	7
199	279
200	41
201	30
202	5
203	237
204	30
205	25
215	10
216	133
217	823
218	136
219	88
220	13
221	2
226	8
227	71
228	10
229	5
245	45
246	9
258	20
259	11
260	287
261	55
262	37
263	7
