Mass Spectrum: 2-Propanone, 1-(tetrahydro-5-methyl-5-phenyl-2-furanyl)-, cis-
Formula: C14H18O2
CAS: 83041-26-3
Molecular weight: 218
m/z	intensity
27	53
28	18
29	52
38	8
39	78
40	10
41	62
42	17
43	892
44	35
45	8
50	28
51	99
52	21
53	41
54	13
55	116
56	12
57	23
58	12
63	27
64	10
65	52
66	6
67	7
68	19
69	18
70	10
71	14
72	11
74	12
75	12
76	26
77	296
78	96
79	39
80	9
81	19
82	13
83	52
84	7
85	11
87	8
89	19
90	8
91	273
92	32
95	8
97	17
98	25
99	77
100	176
101	16
102	26
103	95
104	31
105	999
106	111
107	10
115	147
116	55
117	321
118	617
119	113
120	21
121	239
122	22
123	11
127	24
128	86
129	41
130	12
131	91
132	41
133	9
134	14
135	8
141	60
142	221
143	168
144	33
145	40
146	6
147	9
156	28
157	34
158	7
159	11
160	51
161	741
162	124
163	9
185	10
186	4
200	65
201	13
203	680
204	125
205	15
