Mass Spectrum: 2,6R-Diethyl-3,5S-dimethyl-3,4-dihydro-2H-pyran
Formula: C11H20O
CAS: 83058-36-0
Molecular weight: 168
m/z	intensity
38	32
39	441
40	277
41	624
42	462
43	682
44	129
45	92
50	22
51	112
52	49
53	388
54	119
55	654
56	226
57	560
58	127
59	70
60	29
61	6
63	20
65	119
66	74
67	396
68	123
69	555
70	548
71	396
72	44
73	29
74	10
77	140
78	26
79	185
80	28
81	301
82	223
83	449
84	93
85	90
86	502
87	91
88	4
91	75
92	13
93	88
94	21
95	258
96	49
97	163
98	55
99	999
100	354
101	24
105	31
106	7
107	42
108	15
109	90
110	51
111	363
112	41
119	8
121	74
122	9
123	53
124	14
125	364
126	48
135	9
137	16
139	372
140	43
153	219
154	16
166	7
167	30
168	512
169	175
170	11
