Mass Spectrum: 1,Z-5,E-7-Dodecatriene
Formula: C12H20
CAS: 83085-83-0
Molecular weight: 164
m/z	intensity
29	85
30	1
38	4
39	107
40	14
41	153
42	10
43	60
44	1
50	6
51	26
52	15
53	51
54	22
55	141
56	10
57	45
58	2
63	11
64	2
65	64
66	40
67	166
68	42
69	11
70	0
71	5
76	3
77	253
78	84
79	999
80	252
81	159
82	23
83	3
89	4
90	4
91	419
92	143
93	809
94	230
95	46
96	34
97	3
102	2
103	29
104	8
105	136
106	69
107	565
108	234
109	40
110	9
115	14
116	3
117	10
118	1
119	17
120	6
121	110
122	94
123	16
128	1
129	0
133	1
134	28
135	160
136	32
137	2
149	14
150	1
162	1
163	0
164	157
165	17
166	0
