Mass Spectrum: Tricyclo[5.3.0.0(3,9)]dec-4-ene
Formula: C10H14
CAS: 83092-95-9
Molecular weight: 134
m/z	intensity
26	5
27	81
29	17
37	2
38	14
39	189
40	30
41	170
42	8
43	3
44	4
50	21
51	72
52	32
53	60
54	13
55	21
56	18
57	4
58	5
62	8
63	34
64	14
65	117
66	272
67	999
68	70
69	8
70	2
74	4
75	7
76	4
77	244
78	138
79	400
80	370
81	33
82	4
89	10
90	5
91	467
92	474
94	19
95	2
102	4
103	22
104	12
105	190
106	119
107	18
115	20
116	7
117	18
118	3
119	182
120	22
121	2
131	5
132	2
133	23
134	354
135	40
136	2
