Mass Spectrum: 2-Phenylthioindan
Formula: C15H14S
CAS: 83094-63-7
Molecular weight: 226
m/z	intensity
39	137
50	51
51	155
63	111
65	277
69	86
77	139
89	120
91	338
109	304
110	138
115	999
116	891
117	678
118	52
226	435
227	70
228	26
