Mass Spectrum: 2,5,8-Metheno-2H-furo[4,3,2-ef][1]benzoxepin, decahydro-
Formula: C12H16O2
CAS: 83098-74-2
Molecular weight: 192
m/z	intensity
26	16
27	264
28	75
29	182
31	24
39	361
40	71
41	486
42	62
43	562
44	26
45	27
50	23
51	107
52	55
53	232
54	88
55	509
56	34
57	142
58	30
62	23
63	37
65	162
66	200
67	655
68	334
69	178
70	109
71	49
73	26
77	353
78	179
79	740
80	476
81	463
82	401
83	478
84	60
85	28
86	21
91	799
92	394
93	327
94	443
95	746
96	424
97	116
98	42
103	62
104	209
105	261
106	100
107	375
108	193
109	88
110	67
111	37
112	46
115	55
116	53
117	347
118	238
119	244
120	197
121	173
122	459
123	104
124	30
125	32
126	28
127	28
128	59
129	74
130	999
131	244
132	67
133	200
134	50
135	251
136	113
137	36
138	30
139	15
140	19
141	29
143	53
145	261
146	134
147	50
148	179
149	78
150	319
151	44
155	25
156	116
159	37
161	37
163	113
164	110
173	21
174	209
175	35
191	18
192	628
193	86
