Mass Spectrum: 2H-Pyran, 2-[(1-butyl-2-propynyl)oxy]tetrahydro-
Formula: C12H20O2
CAS: 831-83-4
Molecular weight: 196
m/z	intensity
39	110
40	20
41	310
42	30
43	80
44	70
45	10
50	10
51	20
52	30
53	80
54	30
55	290
56	300
57	170
58	20
59	10
65	30
66	20
67	210
68	20
69	20
70	90
71	10
74	10
77	20
79	140
80	30
81	20
83	100
84	80
85	999
86	60
91	10
93	50
94	20
95	280
96	20
97	20
101	90
102	10
111	10
112	10
139	40
