Mass Spectrum: 1-(4-Methoxybenzenesulfonyl)pyrrolidin-3-one
Formula: C11H13NO4S
CAS: 83132-97-2
Molecular weight: 255
m/z	intensity
40	14
41	102
42	999
43	70
44	22
45	22
48	7
49	7
50	77
51	69
52	30
53	38
54	38
55	108
56	258
57	38
58	7
60	7
61	7
62	27
63	147
64	227
65	44
66	14
67	7
69	23
70	7
71	6
73	7
74	15
75	15
76	41
77	389
78	41
79	28
80	7
81	7
82	7
83	31
84	131
85	16
91	14
92	233
93	23
95	15
96	7
97	7
104	7
105	7
106	14
107	405
108	44
109	7
120	21
121	299
122	41
123	191
124	15
125	7
132	7
134	39
135	64
136	7
140	7
148	7
155	41
156	7
162	18
163	67
164	6
170	17
171	734
172	55
173	41
198	11
199	18
226	7
227	141
228	15
229	6
254	7
255	104
256	18
257	7
