Mass Spectrum: 1-(4-Chlorobenzenesulfonyl)pyrrolidin-3-one
Formula: C10H10ClNO3S
CAS: 83132-99-4
Molecular weight: 259
m/z	intensity
40	3
41	45
42	999
43	47
44	10
45	7
49	3
50	54
51	31
52	3
54	10
55	44
56	88
57	13
60	3
61	3
63	3
69	7
71	3
73	7
74	20
75	111
76	26
77	8
81	3
83	7
84	73
85	15
87	4
97	4
110	8
111	221
112	24
113	67
114	3
120	7
125	3
127	3
132	4
138	4
139	9
140	3
141	3
166	11
168	3
174	3
175	162
176	15
177	62
178	3
231	44
232	3
233	17
259	21
260	3
261	7
