Mass Spectrum: 1-(4-Nitrobenzenesulfonyl)pyrrolidin-3-one
Formula: C10H10N2O5S
CAS: 83133-04-4
Molecular weight: 270
m/z	intensity
40	9
41	70
42	999
43	66
44	7
45	13
46	7
49	10
50	124
51	30
52	12
53	12
54	20
55	52
56	66
57	15
59	3
60	9
62	3
63	22
64	23
65	4
69	8
70	13
71	3
73	3
74	29
75	76
76	93
77	20
78	9
82	3
83	9
84	48
85	4
92	31
93	3
95	4
102	22
106	11
121	2
122	126
123	3
150	3
177	4
185	4
186	102
187	9
188	2
242	26
243	3
270	3
