Mass Spectrum: N-Benzenesulfonylpyrrolidin-3-one
Formula: C10H11NO3S
CAS: 83143-34-4
Molecular weight: 225
m/z	intensity
41	55
42	999
43	63
50	65
51	243
52	20
54	19
55	58
56	132
57	15
74	13
76	21
77	618
78	67
84	67
91	15
104	23
105	62
132	77
133	22
141	274
142	29
143	14
197	114
198	10
225	40
