Mass Spectrum: Acetic acid, 4-methyl-2-oxotetrahydropyran-4-yl ester
Formula: C8H12O4
CAS: 83191-98-4
Molecular weight: 172
m/z	intensity
25	4
26	29
27	114
28	65
29	92
30	4
31	19
36	5
37	19
38	43
39	382
40	36
41	63
42	83
43	485
44	28
45	393
46	5
49	7
50	36
51	42
52	22
53	106
54	400
55	111
56	19
57	12
60	312
61	12
62	6
63	5
66	7
67	48
68	6
69	21
70	5
71	5
76	2
81	5
82	999
83	86
84	13
85	2
91	4
93	2
95	3
97	3
98	2
105	3
107	2
111	15
112	564
113	43
114	4
115	2
134	11
139	3
146	31
147	3
160	9
161	3
163	5
164	2
