Mass Spectrum: 1,3-Cyclohexanediol, diacetate, cis-
Formula: C10H16O4
CAS: 832-09-7
Molecular weight: 200
m/z	intensity
26	2
27	29
29	9
30	1
31	5
37	0
38	2
39	35
40	7
41	81
42	42
43	999
44	34
45	3
49	0
50	0
51	2
52	2
53	13
54	71
55	34
56	9
57	13
58	9
59	0
60	1
61	83
62	2
63	0
65	2
66	1
67	13
68	7
69	40
70	73
71	9
72	1
73	3
74	0
75	0
76	0
77	6
78	5
79	97
80	396
81	89
82	8
83	117
84	7
85	0
86	6
87	0
88	0
89	0
91	0
93	0
94	1
95	2
96	7
97	115
98	373
99	31
100	1
103	9
104	1
107	0
111	2
112	8
113	1
114	0
115	4
116	0
117	0
121	0
122	0
123	0
125	3
129	0
130	0
135	0
139	1
140	49
141	5
142	0
143	0
157	1
158	1
