Mass Spectrum: Cyclododecanol, 1-aminomethyl-
Formula: C13H27NO
CAS: 832-29-1
Molecular weight: 213
m/z	intensity
26	7
27	119
29	233
30	999
31	108
33	7
39	124
40	32
41	498
42	136
43	252
44	45
45	23
46	10
50	5
51	10
52	8
53	75
54	42
55	398
56	115
57	109
58	74
59	34
60	11
65	21
66	12
67	147
68	42
69	143
70	74
71	67
72	96
73	63
74	7
75	3
77	23
78	9
79	38
80	18
81	135
82	43
83	268
84	42
85	23
86	121
87	10
91	11
92	3
93	19
94	12
95	135
96	25
97	79
98	31
99	10
100	9
101	3
105	3
107	8
108	7
109	84
110	14
111	19
112	12
113	5
114	8
115	3
121	6
122	5
123	26
124	8
125	10
126	7
127	3
128	9
129	5
135	4
136	2
137	3
138	4
139	6
140	3
141	2
142	6
149	3
153	5
154	5
155	5
156	6
170	11
182	28
183	316
184	48
185	5
194	2
195	2
196	7
197	2
213	25
214	7
