Mass Spectrum: 6-Methyl-hept-2-en-4-ol
Formula: C8H16O
CAS: 83212-30-0
Molecular weight: 128
m/z	intensity
26	4
27	83
28	7
29	68
30	2
31	20
37	1
38	4
39	84
40	14
41	217
42	32
43	283
44	16
45	21
46	1
50	3
51	8
52	3
53	83
54	7
55	34
56	13
57	106
58	46
59	9
60	3
61	1
62	1
63	2
65	7
66	3
67	39
68	17
69	58
70	21
71	999
72	59
73	6
75	1
76	1
77	4
78	1
79	3
80	1
81	4
82	1
83	5
84	6
85	63
86	94
87	11
91	2
93	2
95	23
96	2
97	2
99	1
100	2
102	1
109	1
110	5
111	5
113	38
114	2
126	1
127	1
128	9
129	6
130	1
