Mass Spectrum: (S)-N,N'-Bis-[2-acetoxy-1-(acetoxymethyl)ethyl]-5-[(2-acetoxy-1-oxopropyl)acetylamino]-2,4,6-triiodo-1,3-benzenedicarboxamide
Formula: C29H34I3N3O14
CAS: 83239-14-9
Molecular weight: 1029
m/z	intensity
42	116
43	999
44	190
45	126
50	22
51	94
52	22
60	108
61	22
78	116
79	54
80	56
94	50
95	48
105	40
106	60
107	28
159	42
203	32
375	12
416	10
427	20
487	20
488	5
499	10
500	5
501	10
553	20
554	5
604	11
613	40
614	10
625	20
626	5
627	10
667	6
684	14
686	10
727	14
728	6
742	5
800	4
801	9
840	2
860	2
861	5
872	2
902	1
915	2
