Mass Spectrum: [1,1'-Bicyclohexyl]-4-carboxylic acid, 4'-propyl-, 4-propylcyclohexyl ester, [trans[trans(trans)]]-
Formula: C25H44O2
CAS: 83242-83-5
Molecular weight: 376
m/z	intensity
27	64
28	36
29	119
39	62
41	499
42	56
43	203
44	12
53	66
54	185
55	707
56	50
57	199
58	9
65	22
67	421
69	999
70	66
71	15
73	17
77	31
79	147
81	713
82	992
83	611
84	41
91	28
93	52
95	237
96	116
97	108
98	9
105	9
107	40
109	233
110	33
111	138
112	14
119	9
121	43
122	22
123	133
124	631
125	229
126	31
127	104
128	46
129	21
133	10
135	41
137	50
141	18
147	13
149	14
151	38
152	10
161	20
163	19
165	18
166	12
169	26
175	14
191	9
205	25
206	12
207	49
208	9
209	10
217	228
218	34
223	10
233	12
234	31
235	28
253	603
254	100
255	9
