Mass Spectrum: Ethanone, 1-[4-(1H-benzimidazol-1-yl-methyl)amino]phenyl]-
Formula: C16H15N3O
CAS: 83266-36-8
Molecular weight: 265
m/z	intensity
33	0
34	2
36	6
37	48
38	83
39	105
40	41
41	40
42	18
43	168
44	20
45	14
46	12
48	1
49	12
50	117
51	203
52	105
53	19
54	7
55	4
56	2
57	4
59	72
61	31
62	60
63	176
64	144
65	146
67	4
68	1
69	2
70	1
71	2
72	3
73	10
74	46
75	46
76	81
77	282
78	129
79	12
80	2
81	0
82	1
83	1
84	1
85	2
86	4
87	7
88	9
89	20
90	81
91	296
92	68
93	4
94	0
96	0
97	1
98	1
99	1
100	0
101	2
102	27
103	18
104	238
105	29
106	6
107	0
111	0
112	0
118	999
119	127
120	115
121	8
122	0
125	1
126	0
128	0
132	964
133	87
134	7
135	64
136	6
137	0
139	0
147	495
148	66
149	7
150	0
167	0
171	0
178	0
191	0
193	1
194	0
265	3
266	0
