Mass Spectrum: 3-Carbethoxyamino-5-dimethylaminoacetyl-10,11(5H)-dihydrodibenz[b,f]azepine
Formula: C21H25N3O3
CAS: 83275-56-3
Molecular weight: 367
m/z	intensity
14	0
15	8
16	1
17	4
18	15
19	1
26	1
27	13
28	14
29	38
30	35
31	2
32	1
38	0
39	3
40	1
41	3
42	29
43	11
44	8
45	8
46	1
50	0
51	3
52	2
53	0
54	0
55	1
56	4
58	999
59	39
60	1
62	0
63	1
64	1
65	3
66	1
67	0
69	0
70	0
71	1
72	0
75	0
76	1
77	5
78	2
79	1
80	0
82	0
83	0
84	1
85	0
89	4
90	2
91	4
92	1
93	1
101	0
102	1
103	2
104	2
105	1
106	1
107	0
113	0
114	0
115	2
116	2
117	2
118	1
119	0
120	0
125	0
126	0
127	1
128	2
129	1
130	2
131	1
132	1
139	1
140	1
141	0
142	0
143	0
144	0
147	0
150	0
151	1
152	2
153	1
154	1
155	0
156	0
157	0
163	0
164	0
165	2
166	1
167	3
168	1
169	0
171	0
176	0
177	0
178	1
179	1
180	6
181	2
182	1
183	0
190	1
191	2
192	5
193	3
194	2
195	1
203	0
204	0
205	1
206	2
207	5
208	3
209	4
210	1
217	0
218	0
219	0
220	0
221	1
222	0
223	0
233	0
234	1
235	4
236	1
237	0
247	0
248	0
249	1
250	0
251	0
252	0
253	0
254	0
263	0
266	0
267	0
275	0
276	0
277	0
278	0
279	0
280	0
281	1
282	1
283	0
292	0
295	0
296	0
307	0
309	0
322	3
323	1
324	7
325	1
326	0
339	0
340	0
367	24
368	5
369	0
370	0
