Mass Spectrum: Naphtho[2,3-c][1,2,5]selenadiazol-4,9-dione
Formula: C10H4N2O2Se
CAS: 83274-08-2
Molecular weight: 264
m/z	intensity
50	380
51	100
74	110
75	230
76	540
80	50
102	370
103	30
104	999
130	40
132	60
158	270
159	30
184	80
212	30
260	130
261	120
262	360
263	30
264	770
265	80
266	150
