Mass Spectrum: Phosphine, tris(3,3,3-trifluoropropyl)-, oxide
Formula: C9H12F9OP
CAS: 83280-93-7
Molecular weight: 338
m/z	intensity
33	10
37	0
39	27
41	7
42	0
44	3
45	9
47	54
48	5
49	8
51	101
53	7
55	119
57	24
59	50
61	2
62	3
63	4
64	13
65	11
67	36
69	145
71	4
72	7
73	3
75	36
77	999
78	66
80	3
81	5
82	10
83	4
84	2
85	1
86	0
87	0
89	8
91	5
93	5
94	2
95	4
96	2
97	9
98	1
99	0
100	1
101	0
102	1
103	2
105	4
107	4
108	0
109	1
110	0
111	1
112	0
113	1
114	0
115	2
116	0
119	0
121	11
122	0
123	0
125	13
127	41
128	0
130	1
133	1
134	0
137	0
139	0
141	0
143	1
145	32
146	16
147	4
151	0
153	0
154	0
155	0
158	6
159	0
161	0
162	0
163	1
164	1
165	3
166	0
171	2
173	2
178	0
183	0
185	17
186	0
193	3
194	0
197	0
199	0
201	0
212	0
213	2
214	5
219	0
221	13
222	4
223	0
225	0
226	2
229	0
238	0
242	401
243	17
244	0
249	6
250	0
253	0
261	3
269	23
270	1
279	0
299	6
300	0
316	0
319	170
320	13
321	1
335	0
338	12
339	2
