Mass Spectrum: 2,3,4,5-Tetrakis(dimethyl)selenacyclopentasilane
Formula: C8H24SeSi4
CAS: 83295-91-4
Molecular weight: 312
m/z	intensity
42	9
43	156
44	85
45	277
46	18
53	11
55	17
57	16
58	15
59	248
60	17
69	43
70	10
71	41
72	10
73	999
74	101
75	48
78	16
79	10
80	35
81	22
82	31
83	24
84	15
85	68
86	16
87	17
97	18
98	10
99	166
101	126
102	26
103	22
111	17
113	161
114	36
115	163
116	189
117	97
118	22
125	30
127	31
129	155
130	38
131	316
132	53
133	26
139	11
141	41
143	382
144	88
145	96
146	15
147	13
155	14
156	13
157	288
158	435
159	266
160	87
161	30
171	107
172	58
173	214
174	98
175	70
176	17
185	12
187	69
188	20
189	193
190	44
191	28
203	17
205	11
209	142
210	28
211	60
212	11
213	33
215	44
216	15
217	87
218	28
219	18
221	9
223	17
231	10
232	941
233	301
234	169
235	44
236	18
237	24
239	46
241	11
247	18
248	59
249	29
250	20
251	32
253	66
254	16
255	20
262	48
263	16
264	9
293	12
294	14
295	39
296	12
297	73
298	21
299	24
308	15
309	14
310	33
311	12
312	77
313	21
314	24
