Mass Spectrum: 1,3,4-Thiadiazol, 2-amino-5-(m-nitrophenyl)-
Formula: C8H6N4O2S
CAS: 833-47-6
Molecular weight: 222
m/z	intensity
33	6
34	3
37	21
38	32
39	77
40	9
41	10
42	31
43	18
44	15
45	42
46	17
47	52
48	6
50	125
51	57
52	13
53	3
54	1
55	1
56	1
57	7
58	9
60	193
61	23
62	71
63	114
64	30
65	7
66	2
67	1
69	80
70	23
71	6
74	999
75	103
76	119
77	27
78	6
79	1
80	2
81	10
82	12
83	6
84	5
85	6
86	14
87	20
88	48
89	55
90	90
91	11
92	6
93	36
94	43
95	7
96	4
97	0
98	0
99	4
100	3
102	40
103	27
104	6
105	4
106	5
107	44
108	17
109	8
110	1
111	9
112	0
114	2
115	1
116	2
117	16
118	11
119	32
120	183
121	26
122	13
123	1
124	0
125	0
128	1
129	0
130	0
132	5
133	23
134	118
135	13
136	6
137	0
138	0
139	0
143	0
144	0
145	0
146	1
147	1
148	4
149	20
150	4
151	0
152	0
155	0
157	0
159	0
160	0
161	0
163	36
164	5
166	37
167	4
168	1
169	0
171	0
172	0
174	0
175	1
176	16
177	2
178	1
180	11
181	1
182	0
183	0
190	0
192	3
193	0
194	0
195	0
199	0
203	0
206	4
207	0
208	0
211	0
218	1
222	585
223	62
224	29
225	2
226	0
