Mass Spectrum: Acetic acid, 2-acetoxymethylcyclohexyl ester
Formula: C11H18O4
CAS: 833-72-7
Molecular weight: 214
m/z	intensity
26	2
27	29
28	26
29	34
30	1
31	6
36	2
38	1
39	37
40	8
41	97
42	28
43	999
44	65
45	11
50	1
51	5
52	4
53	25
54	47
55	95
56	31
57	38
58	26
59	4
60	5
61	56
62	1
63	1
65	9
66	24
67	104
68	130
69	40
70	39
71	25
72	3
73	9
74	2
75	0
77	16
78	9
79	219
80	29
81	75
82	31
83	69
84	71
85	5
86	5
87	7
91	13
92	5
93	49
94	493
95	118
96	31
97	140
98	16
99	7
100	1
101	1
103	37
104	3
105	1
106	0
107	2
108	11
109	5
110	18
111	196
112	216
113	22
114	2
115	0
116	2
117	0
118	4
119	2
120	1
121	6
122	1
123	1
124	5
125	1
126	9
127	1
128	0
129	10
130	1
131	0
135	2
136	12
137	2
139	8
140	1
141	1
149	3
150	2
151	1
153	1
154	71
155	7
156	1
157	0
171	7
172	3
173	1
