Mass Spectrum: 2,4a,7-Trihydroxy-1-methyl-8-methylenegibb-3-ene 1,10-carboxylic acid 1-4 lactone
Formula: C19H22O6
CAS: 83313-40-0
Molecular weight: 346
m/z	intensity
13	20
14	28
16	42
17	243
19	12
27	53
28	232
29	21
31	26
32	19
35	13
36	77
38	26
39	74
40	45
41	223
42	15
43	180
44	999
45	30
46	17
51	31
52	14
53	109
54	16
55	265
56	20
59	16
60	21
64	23
65	90
66	34
67	105
68	49
69	83
71	43
73	10
76	44
77	220
78	88
79	210
80	38
81	89
82	45
83	85
84	49
85	56
88	23
89	42
90	18
91	349
92	66
93	104
94	58
95	205
96	94
97	79
98	66
99	45
101	17
102	29
103	91
104	46
105	237
106	87
107	166
108	111
109	143
110	11
111	58
112	50
113	36
114	37
115	195
116	79
117	129
118	54
119	95
120	67
121	472
122	148
123	54
124	38
125	14
127	64
128	101
129	204
130	55
131	115
132	33
133	118
134	135
135	221
136	691
137	173
138	24
139	41
140	23
141	226
142	145
143	159
144	95
145	151
146	14
147	106
148	61
149	104
150	58
151	82
152	264
153	197
154	88
155	320
156	151
157	157
158	72
159	127
160	49
161	96
162	29
163	63
164	34
165	189
166	119
167	118
168	63
169	185
170	79
171	153
172	100
173	104
174	32
175	67
176	46
177	68
178	93
179	209
180	111
181	164
182	117
183	119
184	67
185	128
186	59
187	65
188	46
189	59
190	66
191	86
192	68
193	157
194	107
195	301
196	133
197	152
198	59
199	85
200	79
201	61
202	111
203	160
204	40
205	57
206	53
207	69
208	61
209	253
210	129
211	178
212	66
213	114
214	49
215	68
216	62
217	34
218	34
219	83
220	68
221	126
222	57
223	199
224	78
225	142
226	81
227	128
228	60
229	50
230	31
231	42
232	23
233	22
235	15
236	35
237	198
238	283
239	258
240	121
241	121
242	71
243	66
244	73
245	57
246	19
247	13
249	15
251	30
252	16
253	64
254	118
255	190
256	133
257	63
258	59
259	24
260	15
261	14
262	15
264	30
265	50
266	84
267	73
268	35
269	83
270	17
271	54
272	73
273	69
274	22
281	15
282	180
283	191
284	467
285	146
286	49
287	45
289	13
295	17
299	33
300	327
301	145
302	121
303	28
304	12
310	100
311	30
313	20
317	32
318	24
328	268
329	76
330	36
331	19
346	139
347	36
348	15
