Mass Spectrum: Aniline, 2-methyl-N1-[2,2,2-trichloroethylidene]
Formula: C9H8Cl3N
CAS: 83320-58-5
Molecular weight: 235
m/z	intensity
25	0
26	2
27	10
29	32
33	0
34	4
35	3
36	8
37	4
38	9
39	43
40	6
41	15
42	2
43	7
47	7
48	2
49	3
50	19
51	38
52	16
53	6
54	1
55	3
56	5
57	8
58	0
59	3
60	7
61	5
62	12
63	35
64	15
65	100
66	7
67	2
68	0
69	3
70	2
71	3
72	0
73	2
74	6
75	10
76	11
77	30
78	14
79	5
80	1
81	1
82	14
83	9
84	9
85	6
86	3
87	3
88	3
89	37
90	24
91	395
92	67
93	4
95	6
97	4
99	2
100	3
101	13
102	11
103	12
104	10
105	2
106	19
107	17
108	1
109	0
110	1
111	5
112	0
113	3
114	0
115	2
116	8
117	30
118	999
119	101
120	5
121	3
122	1
123	2
124	1
125	2
126	2
127	2
128	21
129	8
130	41
131	35
132	4
133	1
134	0
135	0
136	2
137	2
138	3
139	6
140	2
141	5
142	2
143	0
146	1
147	0
148	1
149	6
150	3
151	6
152	2
153	2
154	1
155	2
156	1
162	1
163	2
164	75
165	37
166	37
167	13
168	4
169	1
173	2
174	0
181	0
182	0
183	0
184	0
185	4
186	0
187	2
188	0
189	0
190	0
191	0
192	0
198	3
199	1
200	68
201	43
202	47
203	27
204	10
205	4
206	0
235	115
236	12
237	106
238	11
239	36
240	3
241	4
242	0
