Mass Spectrum: 2-Propanol, 1,1'-[1,2-ethanediylbis(thio)]bis-
Formula: C8H18O2S2
CAS: 83346-09-2
Molecular weight: 210
m/z	intensity
26	8
27	169
29	74
30	7
31	486
34	5
35	46
36	2
38	3
39	60
40	21
41	328
42	20
43	238
44	21
45	580
46	198
47	231
48	41
49	20
50	2
53	3
54	2
55	18
57	29
58	90
59	559
60	198
61	510
62	54
63	26
64	19
65	4
66	2
67	30
68	3
69	2
71	8
72	8
73	89
74	371
75	999
76	74
77	48
78	38
79	51
80	8
81	9
82	2
83	2
85	13
86	3
87	103
88	10
89	19
90	11
91	16
92	14
93	16
94	18
95	2
99	11
100	8
101	154
102	11
103	78
104	5
105	84
106	44
107	50
108	365
109	29
110	36
111	2
117	17
118	179
119	508
120	44
121	34
122	41
123	14
124	3
133	5
134	28
135	64
136	8
137	4
146	2
148	17
149	9
150	2
151	26
152	271
153	40
154	25
155	4
165	8
166	51
167	5
168	5
177	15
179	2
191	3
192	110
193	10
194	12
195	2
210	117
211	12
212	9
213	2
