Mass Spectrum: Strophanthidol, 3,19-diacetate
Formula: C27H38O8
CAS: 83349-11-5
Molecular weight: 490
m/z	intensity
41	44
43	999
44	10
45	4
47	11
48	5
49	4
51	1
53	24
54	5
55	82
56	3
57	15
61	52
65	14
66	2
67	67
68	8
69	39
71	12
73	7
77	36
79	96
81	88
83	39
84	4
85	15
86	2
91	104
92	12
93	73
94	12
95	55
96	7
97	25
98	14
99	1
103	8
104	9
105	87
107	84
108	24
109	41
111	88
112	4
115	11
116	5
117	46
118	10
119	57
120	5
121	61
122	23
123	23
124	19
125	14
126	6
128	12
129	31
130	15
131	54
133	65
134	5
135	43
136	8
137	29
138	9
139	1
141	13
142	10
143	48
144	6
145	69
146	14
147	41
148	9
149	23
150	7
151	8
153	11
154	1
155	18
156	2
157	38
158	66
159	41
160	17
161	33
162	9
163	39
164	8
165	8
167	8
168	6
169	12
170	17
171	22
172	12
173	19
174	6
175	16
176	13
177	13
178	1
179	23
180	8
181	16
182	3
183	12
184	9
185	27
186	5
187	24
188	7
189	12
190	3
191	7
193	9
195	17
196	1
197	10
199	309
200	45
201	28
202	3
203	3
205	1
209	7
211	5
213	5
214	1
215	4
217	32
218	6
224	1
227	10
229	11
242	5
247	9
259	58
260	10
316	6
339	15
340	1
352	1
