Mass Spectrum: 2,3-Dihydro-1-(4-methoxybenzenesulfonyl)-3-oxoindole
Formula: C15H13NO4S
CAS: 83372-77-4
Molecular weight: 303
m/z	intensity
40	15
41	99
42	37
43	102
44	25
45	26
49	10
50	259
51	443
52	72
53	32
54	10
55	33
56	32
57	63
58	11
61	11
62	22
63	134
64	174
65	42
66	10
69	37
70	9
71	10
73	10
74	42
75	54
76	213
77	999
78	172
79	37
81	10
83	10
84	10
85	10
91	11
92	175
93	12
95	11
97	11
102	10
103	74
104	118
105	107
106	12
107	429
108	55
123	184
124	14
131	45
132	637
133	78
155	33
170	11
171	699
172	93
173	24
303	225
304	44
305	15
