Mass Spectrum: Silane, (iodomethoxy)trimethyl-
Formula: C4H11IOSi
CAS: 83380-15-8
Molecular weight: 230
m/z	intensity
26	2
27	8
28	3
29	90
30	29
31	17
33	0
36	0
37	0
38	0
39	1
40	0
41	8
42	44
43	213
44	97
45	192
46	14
47	20
48	0
49	3
50	0
51	1
52	2
53	16
54	5
55	27
56	7
57	26
58	97
59	47
60	8
61	5
62	0
63	1
64	1
65	1
66	1
67	1
68	0
69	0
70	5
71	8
72	37
73	999
74	96
75	110
76	6
77	22
78	1
79	0
87	2
88	32
89	25
90	3
91	1
92	0
93	3
95	1
100	0
101	0
102	0
103	718
104	64
105	25
106	1
107	0
108	0
123	0
125	0
127	32
128	36
133	0
139	0
140	0
141	5
142	0
147	0
155	18
156	4
157	14
158	0
159	0
168	1
169	3
170	5
171	10
172	0
173	0
184	4
185	267
186	18
187	8
199	0
200	6
201	0
215	27
216	2
217	0
