Mass Spectrum: 1-(p-Bromobenzenesulfonyl)piperidine
Formula: C11H14BrNO2S
CAS: 834-66-2
Molecular weight: 303
m/z	intensity
15	7
26	4
27	29
28	67
29	52
30	38
32	1
37	1
38	4
39	31
40	5
41	86
42	284
43	18
44	5
45	3
48	1
49	2
50	81
51	24
52	4
53	13
54	35
55	282
56	87
57	44
58	2
62	2
63	7
64	3
65	4
67	9
68	9
69	12
70	7
71	1
73	3
74	31
75	134
76	146
77	38
78	4
79	1
80	5
81	3
82	66
83	999
84	827
85	48
86	1
89	1
90	2
91	2
92	1
93	3
95	2
96	8
97	1
98	1
103	1
104	1
105	1
107	2
108	6
109	1
116	1
117	2
118	1
119	1
125	1
128	1
129	4
130	2
131	5
132	12
133	1
134	6
140	8
141	4
143	2
145	1
148	1
149	1
154	2
155	231
156	32
157	228
158	29
159	6
160	10
161	1
169	2
171	4
172	2
173	3
174	1
175	2
177	2
182	2
183	3
184	3
185	3
186	1
187	1
189	1
203	9
204	1
205	9
206	1
210	1
212	1
219	233
220	17
221	240
222	17
223	13
224	10
225	2
238	23
239	8
240	23
241	7
248	3
250	3
262	38
263	4
264	39
265	4
266	2
288	2
290	2
302	374
303	439
304	436
305	452
306	73
307	23
308	2
