Mass Spectrum: 4a-Methyldecalin, 4,4:5,5-bis(ethylenedioxy)-
Formula: C15H24O4
CAS: 83406-48-8
Molecular weight: 268
m/z	intensity
26	1
27	17
28	16
29	15
30	0
31	2
39	17
40	5
41	67
42	35
43	30
44	5
45	21
46	0
47	1
48	1
49	0
50	0
51	4
52	2
53	25
54	12
55	92
56	11
57	10
58	1
59	1
60	1
61	0
62	1
63	1
64	0
65	11
66	5
67	36
68	9
69	25
70	4
71	5
72	0
73	30
74	1
75	1
76	5
77	63
78	4
79	29
80	6
81	29
82	12
83	17
84	6
85	2
86	260
87	34
88	8
89	4
90	1
91	31
92	3
93	20
94	4
95	21
96	7
97	7
98	3
99	999
100	136
101	18
102	1
103	1
104	2
105	10
106	3
107	12
108	11
109	22
110	6
111	27
112	229
113	120
114	11
115	14
116	3
117	2
118	2
119	8
120	6
121	18
122	4
123	16
124	34
125	33
126	20
127	24
128	3
129	2
130	1
131	3
132	2
133	10
134	8
135	20
136	5
137	19
138	17
139	74
140	28
141	9
142	1
143	2
144	2
145	7
146	2
147	6
148	2
149	42
150	7
151	13
152	14
153	127
154	16
155	51
156	36
157	3
158	6
159	3
160	2
161	20
162	10
163	8
164	2
165	31
166	5
167	42
168	119
169	19
170	2
171	24
172	4
173	0
174	2
175	2
176	5
177	5
178	26
179	16
181	32
182	14
183	8
184	0
185	1
186	1
187	0
189	1
191	5
192	1
193	14
194	2
195	10
196	32
197	7
198	1
199	0
205	5
206	29
207	59
208	14
209	4
210	1
211	4
212	0
213	1
221	1
222	0
223	189
224	33
225	304
226	39
227	5
228	0
237	4
238	3
239	50
240	11
241	1
243	0
250	0
251	0
253	3
254	0
262	2
263	0
267	2
268	400
269	63
270	8
271	0
