Mass Spectrum: N-[2-(Acetoxy)ethyl]pyridine-3-carboxamide
Formula: C10H12N2O3
CAS: 83440-03-3
Molecular weight: 208
m/z	intensity
14	1
15	9
26	3
27	8
28	18
29	6
30	9
31	2
37	1
38	4
39	7
40	3
41	4
42	18
43	227
44	11
45	4
49	4
50	53
51	190
52	38
53	15
54	1
55	1
56	1
58	1
60	3
61	2
62	1
63	2
64	2
65	4
66	2
67	1
70	4
73	3
74	1
75	4
76	10
77	18
78	379
79	75
80	9
81	1
86	3
88	3
90	1
91	2
92	4
93	6
94	1
103	1
104	3
105	11
106	999
107	81
108	6
109	1
117	1
118	14
119	36
120	8
121	8
122	2
123	81
124	7
133	9
134	2
135	117
136	21
137	2
147	39
148	318
149	34
150	2
165	79
166	11
167	1
208	4
209	1
