Mass Spectrum: 2-Decylfuran
Formula: C14H24O
CAS: 83469-85-6
Molecular weight: 208
m/z	intensity
41	70
53	101
54	16
55	51
66	20
67	63
68	40
81	999
82	374
94	100
95	449
96	95
109	67
123	113
124	53
137	49
151	59
165	38
179	12
208	146
209	18
