Mass Spectrum: Palladium, (.eta.2-1,2,3,4-tetramethyl-5-methylene-1,3-cyclopentadiene)bis(trimethylphosphine)-
Formula: C16H32P2Pd
CAS: 83463-67-6
Molecular weight: 392
m/z	intensity
26	25
27	147
29	42
30	2
31	14
33	10
34	4
35	5
36	0
37	3
38	9
39	106
40	15
41	184
42	6
43	5
44	54
45	248
46	39
47	76
48	9
49	7
50	27
51	79
52	28
53	55
54	5
55	17
56	36
57	168
58	63
59	537
60	40
61	806
62	30
63	34
64	20
65	57
66	19
67	16
68	2
69	2
70	1
71	5
72	2
73	18
74	10
75	130
76	471
77	142
78	25
79	49
80	4
81	0
82	0
84	0
85	0
86	2
87	3
88	1
89	11
90	4
91	228
92	25
93	28
94	2
96	0
98	0
100	0
101	1
102	7
103	39
104	30
105	45
106	8
107	3
108	0
109	0
110	0
112	0
113	1
114	1
115	52
116	20
117	67
118	27
119	999
120	93
121	6
122	1
126	0
127	2
128	6
129	4
130	0
131	7
132	9
133	131
134	407
135	44
136	3
137	0
141	0
143	0
149	0
150	0
151	2
152	1
153	1
155	1
162	0
163	0
164	0
165	1
166	2
167	3
168	0
169	2
170	0
171	1
175	0
176	0
178	0
179	1
180	11
181	21
182	22
183	3
184	21
185	2
186	10
187	0
190	0
191	0
193	0
196	0
197	0
198	0
237	0
238	0
239	0
240	0
241	0
242	1
243	0
244	0
245	0
247	0
254	1
255	0
256	10
257	20
258	24
259	2
260	21
261	1
262	10
263	0
265	0
283	0
313	0
314	2
315	4
316	6
317	1
318	4
319	0
320	2
321	0
390	2
391	4
392	5
393	0
394	5
395	0
396	2
397	0
