Mass Spectrum: 4-[6-[[6-Methoxy-4-methyl-8-quinolinyl]amino]hexyl]-1-piperazinepropanol
Formula: C24H38N4O2
CAS: 83546-71-8
Molecular weight: 414
m/z	intensity
42	999
43	744
44	281
45	17
46	4
49	2
50	2
51	15
52	9
53	18
54	46
55	222
56	487
57	267
58	223
59	24
60	4
62	2
63	11
64	3
65	12
67	15
68	61
70	696
71	124
72	95
73	7
74	3
75	9
76	2
77	32
78	8
79	16
80	9
81	32
82	59
83	50
84	170
85	43
86	26
88	86
89	11
90	6
91	12
92	4
93	8
94	9
96	53
97	158
98	219
99	88
100	71
101	11
102	59
103	18
104	7
105	3
106	3
107	4
108	5
110	66
111	44
112	349
113	39
114	55
115	5
116	121
117	17
118	8
119	3
121	4
122	3
123	3
124	70
125	61
126	60
127	215
128	26
129	20
130	61
131	25
132	7
133	1
134	2
136	4
139	409
140	45
142	95
143	69
144	35
145	32
146	13
147	3
149	2
150	2
151	3
153	22
155	46
157	199
158	186
159	53
160	8
161	4
163	13
164	14
165	1
166	3
167	14
168	9
169	21
170	12
171	27
172	48
173	91
174	31
175	7
177	7
178	3
179	1
181	9
182	3
183	20
185	66
186	34
188	349
189	135
190	14
191	1
192	6
193	1
195	4
196	2
197	7
198	3
199	55
200	11
201	518
202	59
203	16
204	1
207	15
209	0
211	18
213	83
214	25
215	60
216	10
217	1
219	1
221	4
225	16
226	25
227	54
228	10
229	11
232	3
237	1
239	10
240	6
241	16
242	10
243	8
246	3
252	1
253	7
255	50
256	9
257	17
258	3
267	16
268	84
269	184
270	51
271	22
272	5
281	8
282	2
283	4
284	5
285	11
287	8
288	3
295	1
296	7
298	134
300	541
301	94
302	9
310	1
311	1
312	8
313	58
314	37
315	4
316	1
322	1
324	4
326	79
327	32
328	16
330	3
338	1
339	7
340	15
341	7
342	1
352	1
353	4
354	8
355	10
356	5
357	2
358	2
369	12
370	3
371	2
373	1
381	1
382	3
383	2
384	2
395	1
396	1
397	1
399	135
400	33
401	3
402	2
412	12
414	293
415	79
416	15
