Mass Spectrum: 7,9-Dimethyl-1,4-dioxa-7,9-diazacycloundecan-8-one
Formula: C9H18N2O3
CAS: 83540-65-2
Molecular weight: 202
m/z	intensity
54	30
55	49
56	749
57	999
58	805
59	147
60	16
61	19
64	83
70	113
71	136
72	205
73	202
74	105
84	38
85	169
86	205
87	44
88	77
89	24
98	19
99	33
100	205
101	805
102	611
103	41
112	16
113	105
114	74
115	61
116	69
118	19
127	97
128	58
129	74
130	38
131	41
132	108
141	24
142	36
143	41
144	47
145	161
146	87
157	19
158	66
159	99
160	8
171	158
172	77
173	11
187	19
188	8
202	77
203	22
