Mass Spectrum: But-2-yl N-trifluoroacetyl-2-ethyl-3-aminopropanoate
Formula: C11H18F3NO3
CAS: 83556-43-8
Molecular weight: 269
m/z	intensity
41	522
42	60
43	48
44	41
45	88
53	29
54	88
55	784
56	668
57	827
58	49
59	51
69	241
70	131
73	381
78	99
82	39
83	999
84	109
87	71
88	398
96	20
97	29
98	40
100	19
114	239
126	401
127	19
128	10
140	89
142	10
143	20
144	30
151	49
153	19
167	262
168	89
169	100
194	20
195	60
196	821
197	80
213	90
214	111
