Mass Spectrum: But-2-yl N-trifluoroacetyl-2,2-dimethyl-3-aminopropanoate
Formula: C11H18F3NO3
CAS: 83556-45-0
Molecular weight: 269
m/z	intensity
41	559
42	128
43	99
44	30
45	29
53	40
54	20
55	984
56	954
57	873
58	88
59	41
69	170
70	130
73	201
78	49
87	49
88	999
89	80
98	81
114	269
126	149
144	180
167	109
168	765
169	242
196	843
197	70
213	70
214	121
270	10
