Mass Spectrum: 1-Azaspiro[5.5]dodec-7-ene, 1-benzyl-7-butyl-
Formula: C21H31N
CAS: 83562-28-1
Molecular weight: 297
m/z	intensity
33	57
38	2
39	68
40	107
41	301
42	60
43	191
44	63
45	3
50	4
51	15
52	13
53	46
54	43
55	208
56	65
57	184
58	13
59	116
60	14
63	3
64	1
65	99
66	17
67	80
68	22
69	67
70	92
71	90
72	64
73	10
74	1
76	13
77	84
79	116
80	38
81	43
82	44
83	41
84	29
85	6
86	3
87	1
89	18
91	999
92	88
93	68
94	24
95	24
96	21
97	27
98	10
101	2
102	3
103	11
104	50
105	74
106	51
107	33
108	26
109	12
110	36
111	14
112	44
113	44
115	22
116	6
117	39
118	32
119	24
120	82
121	30
122	46
123	18
124	16
126	5
127	3
128	9
129	12
130	14
131	16
132	34
133	29
134	67
135	33
136	43
137	10
138	3
141	1
143	4
144	8
145	20
146	60
147	21
148	48
149	397
150	85
151	15
152	13
153	2
154	6
155	1
156	4
158	10
159	5
160	16
161	8
162	22
163	11
164	34
165	12
167	143
168	14
169	4
170	8
172	13
173	1
174	10
176	9
178	105
179	21
180	6
182	2
184	9
185	2
186	45
187	35
188	5
190	1
192	13
193	8
194	15
196	13
197	16
198	342
199	63
200	371
201	57
202	5
203	3
205	2
206	103
207	21
210	13
211	10
212	159
213	71
214	14
220	4
221	2
222	14
223	5
224	11
226	302
227	54
228	9
238	2
240	121
241	34
242	7
252	9
254	547
255	109
256	21
268	50
269	28
270	10
278	1
279	60
280	10
281	5
282	30
283	6
296	120
297	341
298	72
299	6
