Mass Spectrum: 7-Thiaprotoadamantane 7,7-dioxide
Formula: C9H14O2S
CAS: 83570-55-2
Molecular weight: 186
m/z	intensity
39	75
61	323
65	114
66	292
67	642
68	117
78	124
79	835
80	999
81	361
91	148
93	693
94	194
121	721
122	116
186	46
