Mass Spectrum: 4-(6-Trityloxy-hexyloxy)-phthalonitril
Formula: C33H30N2O2
CAS: 83577-74-6
Molecular weight: 486
m/z	intensity
12	3
13	2
14	5
15	22
16	3
17	2
18	4
19	2
27	163
28	67
29	361
30	14
31	45
37	9
39	120
41	464
42	154
43	138
44	17
45	7
50	25
51	116
52	18
53	32
55	417
56	48
57	46
58	3
59	1
61	2
62	9
63	17
64	17
65	16
67	26
68	7
69	26
70	9
71	19
72	3
73	5
74	6
75	13
77	341
78	56
79	12
81	19
83	101
85	9
86	2
87	6
88	11
89	19
90	6
91	41
92	3
93	1
95	5
96	3
97	8
98	4
99	8
100	22
101	12
102	18
103	6
105	999
106	83
107	16
109	3
110	2
111	5
113	11
115	65
116	47
117	10
118	4
120	8
121	2
123	2
124	2
125	5
127	90
128	17
129	28
130	4
131	1
133	2
135	2
137	3
139	22
140	4
141	10
142	4
144	129
145	46
146	5
147	2
149	3
150	5
151	10
152	35
153	25
154	35
155	20
157	42
158	5
159	1
161	3
163	23
165	682
166	106
167	35
168	5
169	1
170	1
171	4
172	2
173	2
174	1
175	2
176	7
178	5
179	2
181	34
183	397
184	52
185	5
187	4
189	11
191	2
192	1
193	1
194	1
195	2
196	1
197	1
200	5
202	23
203	6
204	2
207	1
209	1
211	1
213	10
215	39
216	10
217	1
221	2
223	1
224	2
226	24
227	25
228	53
229	12
230	2
231	2
237	6
239	50
240	20
241	43
243	705
244	239
245	30
246	3
257	2
259	99
260	19
261	3
265	1
283	2
297	2
332	1
333	1
409	44
410	14
411	2
437	1
486	36
487	13
488	3
