Mass Spectrum: 4-Benzyloxybenzyl chloride
Formula: C14H13ClO
CAS: 836-42-0
Molecular weight: 232
m/z	intensity
33	1
34	0
36	1
37	0
39	36
40	6
41	9
43	0
44	0
50	10
51	28
52	14
53	2
55	0
62	5
63	17
65	91
66	3
70	0
73	0
74	1
75	1
77	28
78	19
79	1
82	0
83	0
85	0
86	0
87	1
89	28
91	999
92	59
93	1
94	0
97	0
98	0
99	1
101	0
102	0
105	2
106	4
107	3
108	0
111	0
112	1
113	3
115	1
119	0
121	0
125	1
126	0
127	0
128	0
140	0
141	2
142	0
143	0
149	0
151	0
152	1
153	0
154	0
164	0
165	1
166	0
167	1
168	0
181	1
182	0
183	0
195	1
197	38
198	5
199	0
230	0
232	95
233	15
234	29
235	4
236	0
