Mass Spectrum: Benzenemethanol, .alpha.-phenyl-.alpha.-1-propynyl-
Formula: C16H14O
CAS: 836-87-3
Molecular weight: 222
m/z	intensity
25	1
26	11
27	52
28	22
29	29
30	10
31	44
32	3
34	1
36	2
37	3
38	13
39	168
40	12
41	14
42	2
43	25
44	2
45	14
46	0
47	1
49	2
50	87
51	360
52	43
53	19
54	1
55	12
56	5
57	21
58	2
59	10
60	3
61	4
62	19
63	63
64	15
65	34
66	26
67	997
68	49
69	8
70	3
71	3
72	0
73	6
74	40
75	56
76	92
77	875
78	158
79	20
80	2
81	5
82	12
83	12
84	3
85	3
86	10
87	20
88	36
89	82
90	9
91	91
92	11
93	9
94	19
95	14
96	9
97	8
98	8
99	25
100	17
101	68
102	36
103	31
104	11
105	999
106	78
107	10
108	1
109	4
110	5
111	22
112	2
113	12
114	14
115	214
116	132
117	56
118	7
119	4
120	0
121	0
122	1
123	2
124	1
125	7
126	26
127	45
128	37
129	43
130	7
131	31
132	3
133	2
134	1
135	4
136	1
137	3
138	3
139	18
140	2
141	2
142	1
143	16
144	279
145	553
146	61
147	4
148	0
149	3
150	12
151	27
152	58
153	32
154	28
155	58
156	11
157	2
158	1
159	1
160	0
161	1
162	3
163	16
164	11
165	62
166	12
167	6
168	2
169	0
170	0
171	2
173	0
174	3
175	7
176	23
177	31
178	149
179	104
180	24
181	42
182	237
183	174
184	24
185	2
186	1
187	6
188	6
189	43
190	22
191	20
192	12
193	31
194	18
195	19
196	4
197	1
198	1
199	4
200	18
201	23
202	82
203	71
204	37
205	58
206	20
207	586
208	97
209	9
210	0
212	0
217	0
218	1
219	6
220	11
221	108
222	530
223	95
224	8
225	1
226	1
