Mass Spectrum: Cyclopentene, 1,2-dimethyl-4-methylene-
Formula: C8H12
CAS: 83615-96-7
Molecular weight: 108
m/z	intensity
27	122
28	10
29	39
30	0
37	5
38	22
39	270
40	47
41	150
42	9
43	3
44	1
45	3
46	1
49	1
50	29
51	91
52	49
53	97
54	16
55	16
56	1
58	0
60	0
61	3
62	13
63	37
64	13
65	107
66	26
67	36
68	5
69	1
73	1
74	6
75	7
77	538
78	74
79	129
80	21
81	4
82	0
83	0
84	0
85	0
86	1
87	1
88	1
89	17
90	9
91	544
92	75
93	999
94	66
95	4
98	0
101	0
102	1
103	9
104	3
105	43
106	9
107	91
108	572
109	46
110	2
