Mass Spectrum: Benzene, 1,4-diacetyloxy-2,3-dicyano-
Formula: C12H8N2O4
CAS: 83619-73-2
Molecular weight: 244
m/z	intensity
41	7
42	25
43	999
44	42
45	6
46	0
47	5
48	4
49	8
50	12
51	4
52	2
53	4
54	10
55	3
56	2
57	3
59	2
60	2
61	2
62	2
63	2
64	1
65	0
66	0
67	1
68	0
69	1
70	0
71	1
73	0
74	0
75	2
76	11
77	10
78	8
79	0
81	1
82	8
83	2
84	3
85	5
86	2
87	2
88	6
89	0
91	1
94	3
95	3
96	0
97	0
99	0
100	0
102	1
103	1
104	5
105	2
106	2
107	2
110	0
111	1
114	0
115	0
120	0
121	0
124	2
131	1
132	6
133	1
138	0
143	0
146	0
149	1
159	0
160	112
161	10
162	0
165	0
173	0
174	1
185	1
202	78
203	9
204	1
216	0
229	2
244	45
245	6
246	0
247	0
