Mass Spectrum: 3,6-Dimethyl-2,4-heptadione
Formula: C9H16O2
CAS: 83631-16-7
Molecular weight: 156
m/z	intensity
41	409
42	84
43	999
44	152
45	103
46	2
47	1
49	1
50	5
51	10
52	7
53	37
54	20
55	144
56	106
57	762
59	142
60	122
61	29
62	1
63	1
65	5
66	2
67	22
68	11
69	268
70	43
71	82
72	202
73	38
74	5
75	4
76	0
77	5
78	1
79	9
80	4
81	12
82	15
83	91
84	33
85	789
87	389
88	254
89	17
90	2
91	2
92	1
93	4
94	1
95	22
96	8
97	38
98	27
99	327
100	45
101	72
102	12
103	42
104	4
105	1
106	2
107	3
108	1
109	7
110	3
111	34
112	9
113	43
114	37
115	17
116	8
117	5
118	1
119	3
120	0
126	10
127	41
128	18
136	0
137	3
138	5
139	46
140	37
141	138
142	19
154	1
155	26
156	152
157	56
158	32
159	3
