Mass Spectrum: Farnesene epoxide, E-
Formula: C15H24O
CAS: 83637-40-5
Molecular weight: 220
m/z	intensity
41	999
43	775
44	39
45	35
50	15
51	74
53	274
55	453
56	40
57	209
59	500
60	19
63	18
65	125
66	46
67	180
68	49
69	209
70	36
71	205
72	48
73	11
77	342
78	92
79	602
80	561
81	454
82	47
83	47
85	303
86	36
87	4
89	9
91	542
92	245
93	615
94	131
95	106
96	25
97	38
98	6
99	8
103	41
105	388
106	143
107	194
108	46
109	92
110	18
111	32
112	6
115	31
116	13
117	68
119	836
120	117
121	117
122	48
123	37
124	8
125	26
126	10
127	31
128	11
129	12
131	51
132	112
133	138
134	346
135	57
136	10
137	19
138	9
139	14
144	7
145	33
146	13
147	39
148	16
149	19
150	6
151	6
159	50
160	10
161	7
162	7
163	6
171	10
177	12
187	21
205	9
