Mass Spectrum: 3-Amino-2-methylbenzyl alcohol
Formula: C8H11NO
CAS: 83647-42-1
Molecular weight: 137
m/z	intensity
15	3
18	6
26	6
27	44
28	60
29	25
30	22
31	15
36	5
37	6
38	22
39	97
40	16
41	41
42	31
43	7
44	3
45	2
46	16
50	32
51	82
52	63
53	58
54	34
55	8
58	76
59	77
60	1
61	12
62	19
63	51
64	19
65	108
66	48
67	35
68	16
74	12
75	13
76	17
77	280
78	66
79	102
80	34
81	11
86	1
87	1
89	41
90	28
91	270
92	90
93	315
94	222
95	14
102	11
103	18
104	57
105	17
106	270
107	50
108	119
109	9
116	6
117	23
118	342
119	999
120	188
121	16
122	44
123	1
134	20
135	20
136	23
137	818
138	71
139	4
