Mass Spectrum: 6a-Ethyl-2,5-dioxohexahydrofuro[2,3-b]furan
Formula: C8H10O4
CAS: 83663-22-3
Molecular weight: 170
m/z	intensity
51	3
52	1
53	11
54	5
55	312
56	42
57	999
58	36
59	2
63	1
64	0
65	3
67	2
68	19
69	76
70	6
71	7
72	1
79	2
80	1
81	2
82	1
83	13
84	5
85	26
86	10
91	5
92	3
96	1
97	42
98	630
99	258
100	11
101	1
108	1
110	2
111	9
113	149
114	8
122	2
123	1
124	2
125	2
126	55
127	3
137	1
141	381
142	24
143	3
149	3
153	4
168	1
171	1
