Mass Spectrum: 5-Undecene, 6-methyl-
Formula: C12H24
CAS: 83687-45-0
Molecular weight: 168
m/z	intensity
24	0
25	6
26	12
27	119
28	62
29	165
30	2
31	7
32	2
35	0
37	1
38	0
39	76
40	19
41	340
42	20
43	128
44	21
45	5
46	8
47	2
48	2
49	4
50	6
51	4
52	15
53	58
54	10
55	999
56	574
57	359
58	18
65	15
66	10
67	58
68	46
69	669
70	173
71	37
75	2
77	16
78	1
79	8
80	3
81	26
82	5
83	213
84	103
85	11
86	1
91	5
93	5
95	10
96	15
97	280
98	48
99	3
102	1
106	1
111	7
112	63
113	14
116	2
121	0
122	2
125	7
139	4
140	0
153	3
164	1
168	88
169	9
