Mass Spectrum: 1,3-Dichloroallene
Formula: C3H2Cl2
CAS: 83682-32-0
Molecular weight: 108
m/z	intensity
26	9
28	8
29	1
32	2
35	164
36	167
37	471
38	361
39	16
41	1
43	1
47	219
48	35
49	66
50	10
51	1
53	7
54	5
55	2
56	1
57	1
59	7
60	12
61	4
62	5
63	1
69	1
71	46
72	106
73	999
75	365
76	11
82	2
83	1
84	2
91	3
92	2
106	5
108	445
110	271
111	11
112	39
113	2
