Mass Spectrum: N-Benzylbenzenesulfonamide
Formula: C13H13NO2S
CAS: 837-18-3
Molecular weight: 247
m/z	intensity
27	6
28	1
30	3
38	2
39	15
40	1
41	2
45	1
50	21
51	90
52	13
53	4
62	1
63	7
64	2
65	27
66	4
69	1
74	5
75	5
76	8
77	284
78	93
79	120
80	8
81	1
89	6
90	3
91	118
92	9
93	1
94	10
95	1
97	5
103	1
104	88
105	38
106	999
107	83
108	3
109	1
110	1
115	1
125	38
126	6
127	2
128	1
141	36
142	7
143	59
144	4
145	3
152	3
153	2
154	1
165	2
167	1
170	1
180	1
181	2
182	4
183	1
246	4
247	5
248	1
