Mass Spectrum: Ether, 2-ethylhexyl tert-butyl
Formula: C12H26O
CAS: 83704-03-4
Molecular weight: 186
m/z	intensity
26	3
27	43
29	116
30	5
31	17
33	1
37	0
38	3
39	32
40	4
41	192
42	32
43	118
44	5
45	1
51	1
53	8
54	4
55	65
56	216
57	999
58	44
59	280
60	6
63	0
67	1
68	3
69	33
70	24
71	99
72	13
73	4
77	2
78	2
79	0
81	2
82	0
83	12
84	6
85	3
86	1
87	35
89	1
91	3
95	1
97	5
98	9
99	0
105	1
110	4
111	3
112	17
113	37
114	1
115	0
119	3
120	3
128	3
129	18
130	2
131	1
157	0
171	27
172	3
