Mass Spectrum: N-Dimethylaminomethyl-tert.-butyl-isopropylphosphine
Formula: C10H24NP
CAS: 83718-54-1
Molecular weight: 189
m/z	intensity
41	18
42	9
43	60
44	12
58	999
59	49
60	5
132	4
189	1
