Mass Spectrum: Salvinorin A
Formula: C23H28O8
CAS: 83729-01-5
Molecular weight: 432
m/z	intensity
40	15
41	71
42	9
43	622
44	38
45	17
51	7
53	50
54	6
55	148
56	5
57	6
59	30
65	49
66	26
67	57
68	19
69	27
77	82
78	12
79	89
80	10
81	126
82	34
83	7
85	10
86	28
87	51
91	112
92	17
93	113
94	999
95	193
96	30
97	18
98	27
99	6
100	22
103	15
105	73
106	27
107	155
108	112
109	50
110	16
111	20
112	5
115	26
116	51
117	29
118	7
119	67
120	33
121	178
122	25
123	40
124	7
128	11
129	18
131	47
132	11
133	36
134	25
135	65
136	10
137	11
142	6
143	8
145	44
146	38
147	40
148	34
149	44
151	15
153	35
154	7
157	14
158	14
159	33
160	5
161	27
163	19
165	7
166	112
167	20
173	12
175	17
177	15
179	19
189	9
191	10
192	6
193	14
201	5
203	6
206	23
207	14
216	14
217	5
220	54
221	12
233	12
234	6
252	33
273	87
276	6
278	8
294	15
318	18
321	9
341	6
359	21
404	18
432	14
