Mass Spectrum: l-Buthionine sulfoximine
Formula: C8H18N2O3S
CAS: 83730-53-4
Molecular weight: 222
m/z	intensity
41	297
42	61
43	80
44	52
45	107
46	91
47	33
48	49
49	32
51	13
53	10
54	63
55	207
56	999
57	433
58	81
59	10
63	47
64	93
65	139
66	32
74	214
75	90
79	34
80	38
83	123
84	29
86	13
87	41
88	14
91	11
92	34
93	24
100	59
101	64
102	46
103	107
104	42
105	25
122	375
123	13
124	13
148	178
149	12
222	20
