Mass Spectrum: Phenol, 2-methoxy-4-[(4-nitro-1-naphthalenyl)azo]-
Formula: C17H13N3O4
CAS: 83733-44-2
Molecular weight: 323
m/z	intensity
26	3
27	7
28	9
29	5
30	10
31	13
38	5
39	48
40	4
41	50
42	2
43	5
50	22
51	53
52	126
53	24
54	5
55	50
56	2
57	3
61	1
62	11
63	49
64	14
65	125
66	14
67	46
68	9
69	4
71	2
74	19
75	23
76	34
77	77
78	7
79	44
80	63
81	6
82	2
86	6
87	17
88	14
89	10
90	4
91	13
92	9
93	38
94	10
95	15
96	6
98	5
99	9
100	14
101	11
102	9
103	6
105	2
106	2
107	7
108	151
109	13
110	2
111	13
112	3
113	23
114	33
115	15
116	6
117	5
121	2
122	8
123	999
124	104
125	110
126	256
127	39
128	9
129	3
130	3
137	2
138	7
139	18
140	25
141	6
142	64
143	9
149	3
150	2
151	160
152	17
153	3
154	1
155	3
156	7
157	2
158	1
161	1
162	2
163	2
164	2
165	5
166	2
167	1
168	1
169	1
170	2
172	138
173	14
174	1
175	1
176	9
177	6
178	6
179	2
187	2
188	4
189	15
190	4
193	2
194	2
200	5
204	2
205	14
206	4
217	3
218	3
219	2
221	4
222	2
233	8
234	6
235	2
245	1
246	1
247	1
248	4
249	4
250	3
261	3
262	3
263	1
264	1
265	1
276	63
277	18
278	5
280	3
291	2
292	6
293	20
294	4
306	76
307	18
308	4
323	421
324	87
325	11
