Mass Spectrum: 1H-Pyrrole-2-ethanamine, 1-methyl-
Formula: C7H12N2
CAS: 83732-75-6
Molecular weight: 124
m/z	intensity
15	9
16	1
26	2
27	19
28	29
29	4
30	173
31	8
32	1
33	2
37	1
38	5
39	30
40	7
41	39
42	83
43	5
44	3
50	5
51	13
52	16
53	85
54	13
55	5
56	3
57	1
58	1
61	3
62	2
63	5
64	3
65	29
66	16
67	51
68	9
76	1
77	18
78	23
79	9
80	30
81	10
82	5
91	1
92	14
93	77
94	999
95	801
96	56
97	2
104	1
105	1
106	9
107	18
108	8
109	1
119	2
120	2
121	4
122	5
123	2
124	173
125	14
