Mass Spectrum: Phenol, 4-[(4-nitro-1-naphthalenyl)azo]-
Formula: C16H11N3O3
CAS: 83733-42-0
Molecular weight: 293
m/z	intensity
26	4
27	12
28	5
29	14
30	11
31	3
38	10
39	134
40	6
41	21
42	3
43	23
44	10
45	15
49	15
50	26
52	38
53	24
54	4
55	21
56	9
57	29
58	2
59	11
60	5
61	5
62	17
63	60
64	38
65	323
66	25
67	7
68	3
69	16
70	6
71	15
72	5
73	9
74	35
75	48
76	56
77	15
78	5
79	8
80	9
81	18
82	4
83	11
84	12
85	14
86	12
87	40
88	44
89	20
90	5
91	5
92	10
93	999
94	82
95	10
96	3
97	10
98	11
100	23
101	28
102	12
103	6
104	4
105	2
106	2
107	7
108	4
109	19
110	4
111	7
112	4
113	36
114	54
115	31
116	11
117	6
118	2
119	4
120	2
121	420
122	39
123	9
124	2
125	131
126	332
127	63
128	14
129	8
130	4
131	2
132	2
133	9
135	2
137	2
138	3
139	8
140	37
141	13
142	86
143	15
145	3
147	2
154	3
155	5
156	10
157	6
158	2
161	2
163	6
164	5
165	7
166	3
167	3
170	3
172	173
173	30
174	4
176	3
177	3
178	8
179	4
182	3
185	5
187	5
188	7
189	72
190	18
191	6
192	4
200	12
201	4
202	7
203	2
205	8
206	6
207	5
208	3
216	2
217	6
218	28
219	10
220	4
221	3
234	5
235	9
236	2
245	5
246	127
247	47
248	8
262	11
263	45
264	12
265	2
276	177
277	42
278	6
292	9
293	486
294	103
295	14
