Mass Spectrum: 2-Butenoic acid, 2-methyl-, 3-methyl-2-butenyl ester, (E)-
Formula: C10H16O2
CAS: 83783-86-2
Molecular weight: 168
m/z	intensity
26	5
27	121
28	34
29	125
38	13
39	222
40	54
41	608
42	51
44	8
45	9
50	17
51	36
52	19
53	198
54	47
55	631
56	38
57	17
59	4
64	2
66	12
67	347
68	378
69	999
70	69
71	7
79	11
81	28
82	22
83	643
84	44
85	94
86	5
95	14
96	4
97	4
101	36
107	16
110	5
111	4
112	55
122	18
123	108
125	341
126	26
150	7
168	13
