Mass Spectrum: Cytidine, 2'-deoxy-5-methyl-
Formula: C10H15N3O4
CAS: 838-07-3
Molecular weight: 241
m/z	intensity
28	137
39	88
41	70
42	98
43	169
44	113
52	74
53	74
54	187
55	233
56	67
57	63
69	113
70	272
71	83
73	81
81	183
82	52
83	123
96	40
97	155
98	74
99	25
109	28
116	18
117	28
124	15
125	999
126	144
127	12
141	77
142	8
150	52
152	19
167	17
241	7
242	1
