Mass Spectrum: Diphenyl phosphate
Formula: C12H11O4P
CAS: 838-85-7
Molecular weight: 250
m/z	intensity
17	9
18	1
26	3
27	11
28	7
29	1
32	1
37	5
38	18
39	120
40	17
41	2
42	1
43	2
44	2
47	8
49	1
50	29
51	106
52	9
53	6
54	1
55	13
56	1
57	2
61	2
62	7
63	26
64	16
65	156
66	84
67	6
68	3
69	1
71	1
73	2
74	8
75	9
76	14
77	208
78	18
79	2
80	2
81	9
82	1
83	1
84	1
85	1
89	1
91	1
92	6
93	23
94	999
95	66
96	5
97	1
99	1
100	5
101	1
102	1
109	9
110	1
112	1
113	1
114	1
115	11
116	2
124	1
125	6
126	1
127	1
128	4
129	4
130	1
131	1
139	7
140	3
141	30
142	23
143	3
144	1
150	2
151	7
152	19
153	4
154	1
155	2
156	10
157	8
158	2
167	1
168	31
169	95
170	287
171	40
172	4
173	4
174	5
175	1
177	1
185	2
186	4
187	1
215	1
223	2
231	8
232	47
233	9
234	1
248	4
249	279
250	735
251	102
252	12
253	1
