Mass Spectrum: 1,3-Dibenzoyl-4-benzylidene-5-oxo-2-thiocarbonylimidazolidine
Formula: C24H16N2O3S
CAS: 83800-62-8
Molecular weight: 412
m/z	intensity
27	3
28	5
38	1
39	8
44	3
50	13
51	61
52	5
57	1
62	3
63	9
64	2
65	1
74	4
75	6
76	18
77	328
78	21
87	1
88	1
89	11
90	3
102	7
103	2
104	4
105	999
106	81
107	4
116	5
117	1
124	28
125	5
165	1
221	2
248	1
249	577
250	102
251	10
