Mass Spectrum: 1,3-Dibenzoyl-4-benzylidene-2,5-dioxoimidazolidine
Formula: C24H16N2O4
CAS: 83800-56-0
Molecular weight: 396
m/z	intensity
27	1
28	4
39	3
41	1
42	2
43	10
44	3
50	6
51	30
52	2
55	1
57	3
63	3
64	1
65	1
69	1
70	4
71	2
74	1
75	2
76	8
77	229
78	14
81	1
83	1
85	1
89	4
90	2
91	8
92	5
97	1
102	1
103	4
104	2
105	999
106	79
107	5
111	1
116	4
117	1
122	3
124	2
139	4
141	1
147	4
149	1
170	1
178	1
198	2
226	1
249	77
250	12
251	1
292	2
396	23
397	6
398	1
