Mass Spectrum: Dimethyl trans-(2-dodecenyl)succinate
Formula: C18H32O4
CAS: 83826-12-4
Molecular weight: 312
m/z	intensity
12	3
13	1
14	6
15	196
16	3
17	5
18	2
25	2
26	21
27	264
28	61
29	449
30	9
31	28
32	10
33	8
36	1
37	4
38	9
39	246
40	49
41	999
42	132
43	655
44	22
45	56
46	2
47	4
48	1
49	2
50	10
51	33
52	25
53	191
54	283
55	688
56	93
57	262
58	24
59	381
60	11
61	8
62	3
63	10
64	4
65	89
66	88
67	688
68	172
69	332
70	53
71	140
72	11
73	11
74	194
75	33
76	5
77	164
78	69
79	843
80	376
81	581
82	288
83	273
84	441
85	143
86	36
87	163
88	16
89	9
90	6
91	156
92	54
93	290
94	200
95	468
96	247
97	244
98	85
99	41
100	52
101	30
102	6
103	13
104	50
105	72
106	26
107	298
108	116
109	244
110	111
111	244
112	53
113	160
114	700
115	72
116	12
117	26
118	12
119	57
120	21
121	167
122	84
123	147
124	97
125	73
126	589
127	95
128	20
129	18
130	6
131	33
132	15
133	44
134	15
135	129
136	117
137	112
138	119
139	97
140	241
141	51
142	25
143	13
144	5
145	26
146	516
147	58
148	14
149	97
150	97
151	65
152	98
153	61
154	195
155	70
156	26
157	9
158	3
159	15
160	5
161	17
162	8
163	56
164	62
165	46
166	37
167	86
168	48
169	18
170	18
171	8
172	3
173	9
174	4
175	10
176	12
177	33
178	341
179	102
180	16
181	55
182	21
183	9
184	5
185	8
186	3
187	8
188	5
189	22
190	6
191	20
192	140
193	45
194	9
195	28
196	12
197	6
198	2
199	4
200	2
201	7
202	11
203	152
204	28
205	14
206	87
207	76
208	13
209	15
210	11
211	5
212	2
213	6
214	2
215	2
216	2
217	3
218	3
219	12
220	95
221	180
222	32
223	12
224	6
225	2
226	2
227	2
228	1
229	3
230	3
231	39
232	9
233	8
234	4
235	3
236	2
237	6
238	23
239	400
240	69
241	9
242	2
243	2
244	1
245	2
246	4
247	9
248	51
249	59
250	14
251	8
252	757
253	143
254	16
255	2
256	1
257	1
258	1
259	2
260	3
261	14
262	13
263	46
264	9
265	4
266	3
267	2
268	1
269	1
273	1
274	3
275	5
276	2
277	2
278	2
279	5
280	138
281	66
282	12
283	2
288	1
289	1
290	2
291	5
292	5
293	8
294	3
305	1
306	7
307	4
308	1
310	1
311	1
312	20
313	5
314	1
