Mass Spectrum: Angeloylisogomisin O
Formula: C28H34O8
CAS: 83864-70-4
Molecular weight: 498
m/z	intensity
55	400
83	999
100	320
165	120
181	200
300	100
330	150
331	120
342	120
343	120
356	100
368	120
369	150
386	120
398	999
399	570
400	130
415	130
498	820
499	270
