Mass Spectrum: .beta.-Alanine, N-p-toluenesulfonyl-, benzyl(ester)
Formula: C17H19NO4S
CAS: 83865-41-2
Molecular weight: 333
m/z	intensity
41	265
42	835
43	830
44	375
45	493
46	111
47	9
48	48
49	19
50	76
51	123
52	39
53	48
54	15
55	113
56	35
57	32
58	9
60	78
61	28
62	58
63	143
64	85
65	352
66	24
67	18
68	38
69	45
70	384
71	45
72	86
73	33
74	238
75	26
76	20
77	261
78	42
79	122
80	36
81	46
82	11
83	22
84	32
85	20
86	24
87	15
88	85
89	621
90	144
91	999
92	232
93	20
95	14
97	16
98	4
102	8
104	12
105	226
106	27
107	315
108	138
109	16
111	12
112	7
120	13
121	7
122	12
123	2
124	4
130	36
131	7
139	25
147	3
149	11
151	15
155	72
156	36
157	13
163	7
171	9
172	482
173	74
174	34
185	20
186	13
187	16
225	4
226	35
333	8
