Mass Spectrum: 4-Hexenoic acid, 2,2,5-trimethyl-, ethyl ester
Formula: C11H20O2
CAS: 83974-01-0
Molecular weight: 184
m/z	intensity
26	4
27	79
28	19
29	105
30	4
31	7
39	74
40	16
41	471
42	42
43	78
44	8
45	12
50	4
51	11
52	5
53	61
54	13
55	143
56	38
57	30
59	31
65	11
66	6
67	81
68	33
69	999
70	111
71	24
72	6
73	74
74	10
77	18
78	4
79	24
80	6
81	36
82	11
83	29
84	7
85	20
86	10
87	29
88	481
89	25
91	8
93	9
94	5
95	98
96	22
97	17
99	10
100	10
101	21
102	12
107	6
109	37
110	163
111	344
112	33
113	12
115	12
116	760
117	72
118	6
121	7
123	35
124	6
125	16
126	12
128	4
129	35
138	5
139	40
140	8
141	12
142	4
153	4
154	4
155	5
165	8
169	13
170	1
184	216
185	29
