Mass Spectrum: Dodecanoic acid, 11-oxo-, methyl ester
Formula: C13H24O3
CAS: 83993-00-4
Molecular weight: 228
m/z	intensity
26	10
27	90
28	63
29	139
30	7
31	51
35	46
36	13
37	22
38	7
39	101
40	25
41	420
42	131
43	999
44	37
45	54
52	7
53	55
54	62
55	600
56	81
57	110
58	389
59	250
60	15
61	8
63	7
65	15
66	13
67	150
68	84
69	510
70	70
71	197
72	26
73	82
74	687
75	91
76	8
77	17
78	6
79	56
80	32
81	152
82	94
83	234
84	24
85	81
86	32
87	469
88	78
91	31
92	18
93	58
94	55
95	160
96	114
97	332
98	459
99	51
100	18
101	66
102	11
107	26
108	39
109	65
110	88
111	251
112	94
113	58
114	25
115	67
116	14
119	25
120	23
121	152
122	29
123	35
125	110
126	24
127	19
128	22
129	60
130	11
132	8
133	10
134	18
135	74
136	23
137	47
138	236
139	651
141	25
142	15
143	51
144	16
149	12
150	30
151	23
152	83
153	69
154	27
155	44
156	16
157	75
158	32
159	8
161	8
163	10
165	10
166	31
167	10
168	22
170	135
171	573
172	13
178	23
180	12
181	13
183	8
184	8
185	23
186	15
196	23
197	295
198	43
199	115
200	19
213	73
214	13
215	2
228	48
229	8
230	2
