Mass Spectrum: Physodic acid
Formula: C26H30O8
CAS: 84-24-2
Molecular weight: 470
m/z	intensity
40	50
41	590
42	80
43	830
45	70
46	30
50	50
51	130
52	70
53	160
54	40
55	400
56	50
57	120
58	20
60	20
62	30
63	70
64	40
65	140
66	70
67	140
68	30
69	300
70	30
71	250
72	20
73	20
74	10
75	30
76	40
77	180
78	60
79	110
80	30
81	150
82	50
83	40
84	10
85	10
87	20
88	20
89	50
90	30
91	120
92	40
93	70
94	60
95	110
96	30
97	40
98	20
99	230
100	30
101	20
102	30
103	50
104	30
105	120
106	50
107	80
108	50
109	50
110	50
111	50
112	10
115	50
116	20
117	30
118	40
119	80
120	20
121	110
122	80
123	370
124	999
125	100
126	20
127	20
128	30
129	30
130	20
131	50
132	30
133	70
134	90
135	70
136	70
137	210
138	130
139	80
140	40
141	30
142	20
143	20
144	20
145	40
146	30
147	70
148	40
149	110
150	190
151	110
152	40
153	20
155	20
157	20
158	20
159	30
160	30
161	80
162	40
163	130
164	40
165	60
166	150
167	40
168	20
169	20
171	30
172	20
173	30
174	20
175	50
176	50
177	70
178	120
179	220
180	200
181	40
182	20
184	20
185	30
186	20
187	30
188	20
189	40
190	30
191	50
192	100
193	50
194	20
195	20
196	30
197	30
198	10
199	20
200	20
201	40
202	30
203	50
204	20
205	40
206	20
207	220
208	90
209	20
210	20
211	10
212	10
213	50
214	20
215	60
216	30
217	20
218	10
219	30
220	30
221	10
222	10
224	20
225	20
226	20
227	30
228	30
229	50
230	40
231	40
232	10
233	10
235	30
239	20
240	20
241	30
242	30
243	40
244	20
245	20
246	20
247	20
248	140
249	200
250	40
251	20
253	10
254	20
255	30
256	20
257	70
258	30
259	30
261	20
262	20
263	90
264	490
265	80
266	20
267	20
269	20
270	20
271	50
272	30
273	30
281	20
283	30
284	30
285	50
286	80
287	30
295	20
297	20
298	20
299	40
300	20
301	40
302	20
311	20
312	60
313	30
314	30
315	20
325	20
326	20
327	60
328	110
329	30
341	40
342	20
343	30
344	30
351	20
352	20
353	30
354	30
355	30
356	20
357	20
365	20
367	30
368	20
369	70
370	90
371	30
372	30
383	50
384	40
385	20
397	30
398	80
399	30
400	20
424	50
425	50
426	780
427	230
428	50
442	70
443	20
452	30
470	60
471	20
