Mass Spectrum: m-Hydroxybenzaldehyde isonicotinoylhydrazone
Formula: C13H11N3O2
CAS: 840-80-2
Molecular weight: 241
m/z	intensity
34	3
37	32
39	280
40	81
41	44
43	68
44	72
45	9
46	0
50	267
51	693
52	170
53	103
54	19
55	40
57	26
58	1
59	0
60	5
61	8
62	24
63	80
64	40
65	70
66	21
67	11
68	34
69	12
70	7
71	6
72	0
73	6
74	13
75	25
76	38
78	999
79	247
80	110
81	41
82	15
83	5
84	3
85	1
86	0
87	2
88	0
89	5
90	38
91	16
92	11
93	19
94	10
95	9
96	1
97	1
98	0
99	0
102	0
103	3
106	929
107	100
108	45
109	3
110	0
111	0
112	2
113	0
115	0
117	14
119	203
120	56
121	23
122	144
123	506
124	30
125	1
127	2
128	3
129	0
133	0
134	7
135	26
136	2
137	1
148	10
149	4
155	5
157	4
163	1
167	0
171	1
183	19
184	5
185	15
212	0
239	8
241	209
242	27
243	1
