Mass Spectrum: 3-Farnesyloxy-2-hydroxy-4-methoxybenzaldehyde
Formula: C23H32O4
CAS: 84018-86-0
Molecular weight: 372
m/z	intensity
41	440
69	999
81	620
93	200
95	240
109	160
119	350
121	310
123	240
137	310
167	550
168	900
204	350
205	520
372	40
