Mass Spectrum: 2-Butyl-4,5-dimethyloxazole
Formula: C9H15NO
CAS: 84027-97-4
Molecular weight: 153
m/z	intensity
26	14
27	90
28	59
29	41
32	4
33	1
36	7
38	11
39	68
40	22
41	142
42	130
43	186
44	2
49	1
50	5
51	10
52	11
53	18
54	28
55	56
56	3
57	9
58	2
61	2
62	3
64	3
65	5
66	12
67	18
68	98
69	42
70	38
71	2
72	1
74	4
75	2
76	1
78	2
80	8
81	12
82	16
83	2
84	5
86	2
89	2
94	4
95	4
96	5
97	1
98	1
100	2
101	2
106	2
110	155
111	999
112	35
118	1
119	2
122	2
123	10
124	139
125	48
126	1
127	2
128	2
129	2
135	2
137	1
138	22
151	3
152	11
153	64
154	7
