Mass Spectrum: N-(p-Nitrophenethyl)aniline
Formula: C14H14N2O2
CAS: 841-19-0
Molecular weight: 242
m/z	intensity
27	2
28	5
30	8
38	1
39	9
40	1
41	1
50	6
51	29
52	6
53	2
62	1
63	7
64	4
65	11
66	5
74	2
75	2
76	5
77	113
78	27
79	37
80	3
83	1
89	8
90	8
91	12
92	4
93	7
96	1
102	2
103	5
104	27
105	22
106	999
107	82
108	3
117	1
118	2
119	1
121	2
136	4
137	3
149	2
165	1
167	1
180	1
193	1
194	2
195	3
241	2
242	82
243	13
244	1
