Mass Spectrum: N-(2-Methoxyethyl)-N-dichloromethyleneimine
Formula: C4H7Cl2NO
CAS: 84198-93-6
Molecular weight: 155
m/z	intensity
27	221
29	323
31	100
40	84
43	132
45	999
46	53
49	126
51	48
58	25
59	306
62	80
63	44
64	28
65	14
75	181
76	13
77	60
82	31
84	22
88	29
90	18
93	10
98	10
110	60
112	39
119	44
120	22
121	91
122	73
125	15
127	12
