Mass Spectrum: Propanedioic acid, 2-butenyl-, diethyl ester, (E)-
Formula: C11H18O4
CAS: 84200-37-3
Molecular weight: 214
m/z	intensity
26	49
27	487
28	99
29	999
30	35
31	39
36	0
37	2
38	14
39	238
40	54
41	258
42	53
43	119
44	6
45	76
46	1
47	6
48	0
50	6
51	20
52	13
53	117
54	80
55	345
56	21
57	42
58	14
59	2
60	7
61	2
62	1
63	5
64	3
65	48
66	108
67	393
68	71
69	87
70	10
71	36
72	2
73	21
74	0
75	0
77	4
78	0
79	3
81	68
82	7
83	14
84	19
85	12
86	48
87	67
88	17
89	1
91	0
92	0
93	6
94	41
95	223
96	37
97	317
98	19
99	18
100	1
101	1
102	0
103	0
104	9
105	8
106	0
107	1
108	0
109	0
111	37
112	86
113	105
114	22
115	65
116	3
117	0
119	0
120	0
122	54
123	277
124	24
125	346
126	26
127	3
132	7
133	20
134	1
135	0
137	0
140	246
141	97
142	10
143	1
145	0
151	0
157	0
160	131
161	8
162	1
166	0
168	28
169	31
170	3
173	0
185	0
211	0
212	0
214	29
215	5
216	1
