Mass Spectrum: Propanedioic acid, 2-butenyl-, diethyl ester, (Z)-
Formula: C11H18O4
CAS: 84200-40-8
Molecular weight: 214
m/z	intensity
26	50
27	470
28	91
29	999
30	33
31	44
33	0
37	1
38	15
39	243
40	58
41	281
42	67
43	136
44	12
45	87
46	2
47	11
48	1
50	7
51	22
52	14
53	124
54	106
55	405
56	26
57	56
58	17
59	5
60	10
61	3
62	1
63	8
64	4
65	54
66	136
67	477
68	91
69	103
70	17
71	49
72	3
73	32
74	2
75	2
77	4
78	1
79	6
80	2
81	81
82	10
83	16
84	20
85	21
86	78
87	93
88	28
89	3
91	0
92	0
93	8
94	57
95	305
96	51
97	410
98	26
99	28
100	2
101	2
103	1
104	16
105	14
106	0
107	1
108	0
109	1
111	47
112	109
113	149
114	39
115	138
116	8
117	1
119	0
120	1
121	6
122	79
123	262
124	27
125	461
126	35
127	7
128	0
129	1
131	1
132	18
133	41
134	2
135	1
137	1
139	16
140	363
141	159
142	18
143	1
145	1
151	4
153	1
154	0
156	1
157	0
160	239
161	17
162	2
167	1
168	51
169	60
170	7
171	1
183	0
185	0
207	1
208	0
213	0
214	58
215	9
216	1
