Mass Spectrum: N-(1-Cyano-1-methylethyl)isobutyramide
Formula: C8H14N2O
CAS: 84213-57-0
Molecular weight: 154
m/z	intensity
14	1
15	26
26	9
27	124
28	52
29	9
30	13
31	1
37	2
38	5
39	66
40	17
41	334
42	204
43	999
44	73
45	4
46	5
51	2
52	11
53	10
54	33
55	26
56	18
57	174
58	166
59	44
60	1
64	1
66	6
67	8
68	737
69	188
70	61
71	717
72	145
73	8
82	2
83	37
84	68
85	59
86	45
87	22
88	5
94	2
95	2
96	1
97	2
98	2
99	8
100	53
101	4
108	1
109	5
110	4
111	268
112	55
113	6
114	12
115	1
122	2
125	4
126	38
127	100
128	26
129	2
137	12
138	2
139	36
140	3
153	7
154	299
155	68
156	5
