Mass Spectrum: 1-Cyclopentene-1-carboxamide, N-phenyl-
Formula: C12H13NO
CAS: 84257-29-4
Molecular weight: 187
m/z	intensity
26	13
27	99
28	22
29	9
30	1
31	0
33	0
36	1
37	13
38	56
39	396
40	90
41	356
42	15
43	1
44	2
45	1
46	1
47	0
49	0
50	33
51	105
52	31
53	14
54	8
55	30
56	0
57	0
58	0
60	1
61	4
62	14
63	56
64	45
65	324
66	240
67	816
68	74
69	10
70	0
71	2
72	2
73	0
74	6
75	5
76	8
77	143
78	18
79	2
80	2
81	0
82	1
83	3
85	3
87	0
88	0
89	2
90	5
91	31
92	99
93	999
94	200
95	109
96	11
97	0
99	0
101	0
102	1
103	3
104	5
105	2
106	2
107	0
108	0
109	1
110	0
111	0
112	1
113	0
114	0
115	3
116	1
117	5
118	5
119	174
120	89
121	10
122	3
123	0
124	0
126	0
127	0
128	4
129	1
130	9
131	1
132	3
133	1
134	0
137	1
138	0
139	0
140	0
141	2
142	2
143	7
144	3
145	1
146	6
147	0
148	0
149	0
150	0
152	0
153	0
154	0
155	0
156	0
157	0
158	4
159	6
160	2
161	0
165	0
166	1
168	0
169	0
170	1
171	0
172	16
173	1
174	1
175	0
177	0
180	0
181	0
182	0
183	0
184	0
185	1
186	11
187	405
188	56
189	6
190	1
191	0
