Mass Spectrum: Butanoic acid, 2-methyl-, 3-methyl-3-butenyl ester
Formula: C10H18O2
CAS: 84254-81-9
Molecular weight: 170
m/z	intensity
15	2
26	4
27	48
28	23
29	94
30	3
31	3
37	1
38	4
39	85
40	26
41	239
42	19
43	11
44	1
45	4
47	1
50	3
51	7
52	4
53	51
54	12
55	40
56	41
57	588
58	26
59	1
61	1
63	1
65	5
67	261
68	999
69	130
70	7
71	2
73	2
74	3
81	1
83	2
85	283
86	15
87	5
96	1
97	1
100	1
101	1
102	2
103	36
104	2
113	1
115	2
142	1
155	1
