Mass Spectrum: 2,5-Furandione, dihydro-3-(1-methyl-1H-pyrrol-2-yl)-
Formula: C9H9NO3
CAS: 84289-10-1
Molecular weight: 179
m/z	intensity
38	30
39	99
41	35
42	62
50	33
51	49
52	43
53	40
63	39
64	24
65	87
66	43
67	30
75	16
77	48
78	43
79	126
80	69
81	14
91	14
92	145
93	20
94	12
104	22
105	48
106	366
107	999
108	97
152	2
153	3
178	14
179	325
180	40
181	6
