Mass Spectrum: 3-Methoxy-4-propoxyphenol
Formula: C10H14O3
CAS: 84290-16-4
Molecular weight: 182
m/z	intensity
38	380
41	451
43	247
52	119
53	153
55	177
65	142
68	123
69	167
79	78
81	66
93	74
96	93
97	456
108	46
109	23
111	153
123	10
125	999
126	156
138	48
140	774
141	73
153	7
167	2
182	732
183	87
