Mass Spectrum: 6-Methoxy-2-phenethyl-4H-chromen-4-one
Formula: C18H16O3
CAS: 84294-89-3
Molecular weight: 280
m/z	intensity
37	1
39	18
40	1
41	5
50	7
51	30
52	6
53	16
54	3
62	6
63	23
65	78
66	6
69	5
74	4
75	7
76	8
79	53
80	5
89	12
90	6
91	999
92	74
93	4
94	5
95	4
102	7
103	5
104	2
107	44
108	6
117	2
118	28
119	4
126	2
127	9
128	20
129	10
130	5
135	17
136	2
137	2
140	5
146	9
150	22
151	17
152	4
161	26
162	3
165	3
172	1
177	1
178	3
179	1
188	1
189	6
201	1
202	3
203	2
212	1
214	2
218	1
237	2
238	2
239	3
240	1
250	10
251	7
252	2
253	2
261	2
262	1
263	2
265	1
277	1
279	45
280	349
281	65
282	9
283	1
