Mass Spectrum: Benzodioxan-2-yl(methyl)ketone, o-(3-diethylamino)propyloxime
Formula: C17H26N2O3
CAS: 84305-50-0
Molecular weight: 306
m/z	intensity
39	19
40	9
41	38
42	135
43	51
44	53
45	2
46	0
49	0
50	10
51	20
52	60
53	24
54	15
55	18
56	97
57	58
58	82
59	3
60	0
61	0
62	1
63	8
64	7
65	8
66	2
67	2
68	9
69	4
70	45
71	119
72	158
73	10
74	1
75	1
76	3
77	31
78	7
79	17
80	38
81	42
82	6
83	1
84	77
85	23
86	999
87	61
88	1
89	0
90	0
91	1
92	3
93	1
94	1
95	0
96	2
98	35
99	421
100	44
101	3
102	0
103	0
104	0
105	2
106	0
107	15
108	4
109	19
110	5
111	0
112	20
113	3
114	84
115	6
116	0
117	0
118	0
119	0
120	0
121	9
122	1
123	0
124	0
126	51
127	4
128	67
129	40
130	80
131	8
132	0
133	0
134	4
135	53
136	5
137	0
138	0
139	0
144	0
146	10
147	2
148	2
149	0
151	0
152	0
153	0
160	0
161	1
162	1
166	0
174	0
176	0
177	1
178	2
179	0
183	0
193	0
197	0
234	19
235	2
236	0
277	1
278	0
291	3
292	0
305	0
306	1
307	0
