Mass Spectrum: cis-2,5-Diallyloxy-2,5-dihydrofuran
Formula: C10H14O3
CAS: 84315-10-6
Molecular weight: 182
m/z	intensity
55	650
56	80
57	100
67	110
68	630
69	100
81	100
83	350
85	130
97	999
124	670
125	900
126	110
181	20
