Mass Spectrum: 5-[1(R,S),2-Dihydroxyethyl]tetrazole
Formula: C3H6N4O2
CAS: 84348-17-4
Molecular weight: 130
m/z	intensity
31	912
41	62
42	487
44	77
45	66
55	56
56	83
57	911
60	28
61	291
69	15
70	21
71	294
99	99
100	999
112	9
130	7
