Mass Spectrum: 2,3-Di-O-benzoyl-d,l-glycerononitrile
Formula: C17H13NO4
CAS: 84348-15-2
Molecular weight: 295
m/z	intensity
51	128
77	431
105	999
106	140
122	5
173	4
174	44
238	7
265	197
267	24
268	3
295	688
296	131
297	16
