Mass Spectrum: 4-Trichloromethyl-2,2,5,5-tetramethyl-3-imidazoline-1-oxyl
Formula: C8H12Cl3N2O
CAS: 84359-77-3
Molecular weight: 257
m/z	intensity
36	162
37	4
38	52
39	140
40	23
41	319
42	140
43	36
44	3
49	9
50	11
51	58
52	9
56	20
57	7
58	15
69	100
82	16
83	9
84	6
85	17
86	3
87	7
88	4
97	3
98	3
99	36
100	25
101	25
102	10
103	10
104	14
105	6
106	8
107	4
108	8
109	23
110	999
111	7
112	3
114	4
115	6
116	19
117	3
118	6
119	2
120	8
121	19
122	14
123	4
124	3
125	23
126	3
130	10
135	9
136	7
137	7
138	5
139	10
140	7
141	7
142	9
143	4
144	3
149	2
150	63
151	6
152	40
153	4
154	6
155	3
156	48
157	13
158	19
159	4
160	3
162	5
164	4
170	20
172	18
173	2
174	5
176	24
177	14
178	16
179	8
180	3
181	2
184	1
185	23
186	3
187	23
188	2
189	7
190	4
191	21
192	77
193	21
194	49
195	8
196	8
201	9
202	3
203	7
204	2
205	2
207	7
208	2
209	5
212	6
214	5
216	2
227	131
228	12
229	126
230	12
231	40
232	3
233	4
240	1
241	3
242	14
243	13
244	14
245	11
246	5
247	3
257	11
258	3
259	10
260	3
261	3
