Mass Spectrum: (R)-(+)-2,2,2-Trifluoro-N-(3-pyrrolidinyl)acetamide
Formula: C6H9F3N2O
CAS: 84424-06-6
Molecular weight: 182
m/z	intensity
14	1
15	18
17	4
18	21
20	2
26	4
27	29
28	188
29	29
30	155
31	3
33	2
35	42
36	487
37	13
38	160
39	40
40	17
41	151
42	244
43	999
44	69
45	3
46	1
47	2
50	6
51	5
52	4
53	3
54	19
55	9
56	66
57	30
58	9
59	3
60	3
64	1
66	3
67	11
68	307
69	941
70	98
71	3
77	1
78	7
81	2
82	6
83	9
84	19
85	7
86	1
90	1
92	3
93	1
94	3
96	3
97	52
98	5
104	2
109	1
110	1
111	2
112	1
113	24
114	6
118	1
126	6
127	2
132	2
135	1
136	1
138	7
139	2
140	5
152	12
153	2
154	1
167	1
181	8
182	3
183	11
