Mass Spectrum: 2-Isopropylpiperazine
Formula: C7H16N2
CAS: 84468-53-1
Molecular weight: 128
m/z	intensity
30	247
31	45
33	6
39	11
40	4
41	93
42	113
43	101
44	525
45	36
46	1
47	50
48	22
49	14
50	4
53	10
54	37
55	126
56	508
57	107
58	50
59	10
66	6
67	5
68	24
69	22
70	331
71	33
72	78
73	5
80	1
81	4
82	22
83	266
84	160
85	999
86	158
87	24
96	2
97	3
98	14
99	18
100	2
101	5
111	3
113	5
114	1
117	1
118	3
119	1
120	2
127	3
128	57
129	4
130	1
