Mass Spectrum: 2-Benzylpiperazine
Formula: C11H16N2
CAS: 84477-71-4
Molecular weight: 176
m/z	intensity
51	14
52	2
54	17
55	19
56	231
57	45
58	20
65	34
66	2
68	7
69	3
70	1
71	4
72	9
77	23
78	10
79	2
82	1
83	23
84	31
85	999
86	49
89	5
90	3
91	145
92	91
93	5
102	2
103	15
104	24
105	21
115	16
116	7
117	42
118	32
119	13
120	24
130	9
131	2
132	68
133	39
134	12
146	7
176	2
