Mass Spectrum: Ethyl 5,8,11,14,17-icosapentaenoate
Formula: C22H34O2
CAS: 84494-70-2
Molecular weight: 330
m/z	intensity
14	1
15	3
17	5
18	22
26	5
27	72
28	25
29	210
30	5
31	6
32	1
38	1
39	92
40	13
41	541
42	31
43	137
44	6
45	28
46	1
47	1
50	3
51	17
52	12
53	101
54	51
55	347
56	25
57	57
58	4
59	9
60	45
61	31
62	1
63	5
64	2
65	97
66	124
67	612
68	75
69	146
70	62
71	48
72	3
73	33
74	12
75	6
76	2
77	263
78	194
79	999
80	402
81	307
82	83
83	66
84	29
85	35
86	5
87	17
88	101
89	12
90	4
91	672
92	195
93	514
94	230
95	226
96	44
97	51
98	13
99	15
100	6
101	86
102	30
103	29
104	66
105	386
106	328
107	222
108	348
109	111
110	26
111	18
112	5
113	11
114	2
115	43
116	21
117	199
118	64
119	391
120	177
121	127
122	76
123	43
124	12
125	10
126	3
127	9
128	16
129	63
130	39
131	197
132	66
133	227
134	99
135	105
136	36
137	18
138	12
139	5
140	2
141	19
142	9
143	34
144	24
145	122
146	60
147	138
148	121
149	59
150	23
151	11
152	5
153	4
154	8
155	20
156	6
157	36
158	14
159	87
160	49
161	104
162	61
163	25
164	11
165	10
166	8
167	10
168	8
169	20
170	7
171	37
172	10
173	79
174	37
175	111
176	28
177	10
178	5
179	7
180	6
181	11
182	5
183	19
184	6
185	23
186	9
187	56
188	31
189	25
190	6
191	6
192	4
193	8
194	72
195	19
196	5
197	22
198	5
199	20
200	9
201	99
202	26
203	10
204	4
205	6
206	6
207	9
208	27
209	9
210	3
211	7
212	2
213	15
214	6
215	63
216	14
217	5
218	2
219	6
220	7
221	11
222	14
223	9
224	2
225	5
226	1
227	9
228	5
229	9
230	4
231	2
232	2
233	7
234	32
235	12
236	7
237	8
238	2
239	2
240	1
241	10
242	7
243	5
244	1
245	3
246	2
247	9
248	21
249	8
250	18
251	7
252	1
255	9
256	5
257	2
259	4
260	4
261	31
262	22
263	8
264	3
265	1
266	1
267	5
268	1
269	1
273	5
274	7
275	5
276	10
277	3
279	1
283	1
284	2
285	3
286	1
287	9
288	4
289	3
290	1
294	1
296	2
301	14
302	5
303	1
315	1
330	15
331	5
332	2
