Mass Spectrum: 1,3,5-Triazine-2,4-diamine, N,N'-bis(3-methoxypropyl)-6-(methylthio)-
Formula: C12H23N5O2S
CAS: 845-52-3
Molecular weight: 301
m/z	intensity
45	999
46	30
47	29
48	6
49	1
50	0
51	2
52	0
53	13
54	24
55	248
56	87
57	115
58	20
59	34
60	3
61	23
62	0
63	0
64	0
66	1
67	15
68	148
69	134
70	16
71	78
72	40
73	210
74	159
75	4
76	3
77	2
78	0
79	6
80	54
81	55
82	72
83	120
84	15
85	41
86	6
87	2
88	11
89	0
90	0
91	5
92	2
93	28
94	35
95	11
96	13
97	9
98	19
99	77
100	11
101	3
102	0
103	22
104	0
105	0
106	1
107	2
108	45
109	16
110	25
111	23
112	3
113	1
114	8
115	5
116	8
117	1
119	0
120	0
121	5
122	10
123	16
124	9
125	27
126	5
127	5
128	3
129	0
130	0
131	0
133	0
134	5
135	3
136	10
137	13
138	12
139	20
140	19
141	14
142	16
143	1
147	0
148	2
149	1
150	14
151	12
152	9
153	6
154	6
155	2
156	33
157	9
158	4
162	0
163	0
164	3
165	4
166	3
167	18
168	11
169	15
170	58
171	72
172	11
173	0
176	0
178	1
180	2
181	3
182	119
183	20
184	69
185	113
186	7
187	1
194	1
195	1
196	82
197	23
198	86
199	20
200	1
206	0
207	1
208	4
210	189
211	18
212	31
213	21
214	25
215	1
222	1
223	0
224	74
225	4
226	11
227	1
228	53
229	4
230	18
231	0
236	1
238	20
239	0
240	3
241	1
242	142
243	160
244	17
245	2
254	23
256	198
257	17
258	6
268	5
270	181
271	32
272	5
284	0
286	662
287	84
288	27
289	0
300	0
301	58
302	5
303	0
