Mass Spectrum: 5-(Chloromethyl)-1-methylpyrazole
Formula: C5H7ClN2
CAS: 84547-63-7
Molecular weight: 130
m/z	intensity
35	29
36	8
37	10
38	36
39	238
40	103
41	184
42	283
43	147
44	27
45	6
47	5
48	6
49	56
50	170
51	348
52	327
53	61
54	110
55	193
56	14
57	4
58	7
60	5
61	16
62	7
63	16
64	19
65	23
66	62
67	40
68	92
69	12
71	4
72	4
73	17
75	7
77	4
78	9
79	15
80	25
81	15
83	8
87	11
88	5
89	4
90	6
93	25
94	68
95	999
96	118
97	4
115	21
117	6
129	20
130	346
131	29
132	111
133	6
