Mass Spectrum: 1H-Pyrazole-3-carboxylic acid, 4-bromo-1-methyl-
Formula: C5H5BrN2O2
CAS: 84547-86-4
Molecular weight: 204
m/z	intensity
34	25
36	34
37	87
38	92
40	69
41	94
42	999
43	186
44	397
45	223
46	2
50	22
51	166
52	268
53	147
54	98
55	45
56	12
57	16
64	16
65	44
66	41
67	11
68	7
69	16
70	7
71	3
77	26
79	125
80	270
81	325
82	98
83	3
91	24
92	2
93	35
94	18
95	9
98	5
103	5
105	27
106	21
107	17
108	3
109	71
112	6
116	7
117	22
118	37
119	68
120	31
121	47
123	14
124	2
125	14
126	74
127	33
128	7
130	19
131	9
132	54
133	13
134	34
135	2
158	2
159	59
160	81
161	52
162	62
167	10
171	2
173	11
175	3
187	410
188	25
189	400
190	20
204	760
206	773
207	34
