Mass Spectrum: Methyl 3,6,7-tri-O-acetyl-2,4-di-O-methyl-.beta.-glycero-D-glucoheptopyranoside
Formula: C16H26O10
CAS: 84564-03-4
Molecular weight: 378
m/z	intensity
43	978
45	116
53	23
55	27
57	25
58	11
59	39
60	9
61	11
69	256
73	4
74	999
75	722
76	37
79	6
81	32
82	13
83	25
84	18
85	65
87	372
88	163
89	23
97	69
98	18
99	53
100	186
101	629
102	41
103	32
111	48
113	58
114	23
115	46
116	629
117	72
124	18
125	232
126	23
127	18
129	186
139	186
142	139
143	232
153	18
156	76
157	30
159	16
167	16
169	9
171	9
173	16
185	13
187	13
189	6
198	6
199	46
200	6
201	6
202	4
204	3
207	2
213	2
217	3
226	3
227	2
231	1
233	3
243	1
244	1
245	1
258	10
259	41
260	5
261	2
275	2
287	3
303	0
305	0
318	1
319	2
347	4
