Mass Spectrum: Methyl 2,4,7-tri-O-acetyl-3,6-di-O-methyl-.beta.-glycero-D-glucoheptopyranoside
Formula: C16H26O10
CAS: 84564-00-1
Molecular weight: 378
m/z	intensity
43	999
45	124
55	99
57	99
59	99
69	149
71	99
73	37
74	674
75	999
76	37
79	27
81	24
82	27
83	57
85	102
87	227
95	54
96	29
97	69
99	57
100	29
101	137
103	52
109	62
111	64
113	69
115	54
116	324
117	924
118	37
127	124
129	207
130	14
135	19
139	16
141	129
142	37
143	47
145	22
147	19
153	24
157	24
159	24
161	19
163	9
165	9
167	12
169	22
171	37
185	24
187	19
189	12
199	9
201	34
213	32
221	34
229	7
231	7
232	9
233	7
239	12
241	7
261	17
273	7
275	9
277	7
294	7
295	7
305	17
319	0
331	2
347	0
