Mass Spectrum: Methyl 2,3,4-tri-O-acetyl-6,7-di-O-methyl-.beta.-glycero-D-glucoheptopyranoside
Formula: C16H26O10
CAS: 84564-01-2
Molecular weight: 378
m/z	intensity
43	999
45	830
53	118
55	169
57	338
59	338
60	84
67	169
69	338
70	169
71	169
74	338
75	389
77	135
78	118
79	118
81	338
83	288
85	254
87	999
88	203
89	542
91	67
93	67
95	254
97	372
99	186
102	203
103	169
109	203
111	322
113	220
115	355
116	118
117	84
123	118
125	237
127	169
128	152
129	626
131	135
139	406
141	152
142	118
143	152
144	101
145	84
151	67
153	67
155	135
157	203
159	67
161	67
169	52
171	55
173	67
185	84
193	33
199	203
207	50
213	203
215	118
237	50
241	33
259	50
271	16
273	20
275	8
281	16
287	37
289	40
293	10
295	6
301	11
319	5
333	338
347	5
