Mass Spectrum: Methyl 2,3,4,7-tetra-O-acetyl-6-O-methyl-.beta.-glycero-d-glucoheptopyranoside
Formula: C17H26O11
CAS: 84563-95-1
Molecular weight: 406
m/z	intensity
43	999
44	95
45	123
55	33
56	11
57	28
59	49
60	28
61	28
69	285
70	285
71	88
73	64
74	130
75	118
77	23
78	28
81	99
82	83
83	45
85	90
87	499
88	33
97	130
99	111
100	61
101	28
102	237
103	118
109	35
110	38
111	166
113	154
115	230
117	999
118	52
124	69
125	142
127	118
129	475
130	40
139	142
141	57
142	97
143	71
144	140
145	47
147	47
153	95
155	23
157	166
159	71
169	356
170	47
171	285
185	88
189	85
199	47
200	11
201	40
213	178
214	23
215	14
216	9
217	9
219	9
227	14
241	3
243	2
244	19
254	4
255	4
259	4
272	4
273	14
287	21
289	28
301	2
303	1
314	1
315	2
322	2
333	57
346	0
347	2
375	1
