Mass Spectrum: Methyl 2,3,6,7-tetra-O-acetyl-4-O-methyl-.beta.-glycero-D-glucoheptopyranoside
Formula: C17H26O11
CAS: 84563-94-0
Molecular weight: 406
m/z	intensity
43	999
44	111
45	122
59	50
69	381
72	322
73	29
74	351
75	204
81	124
85	102
87	999
88	53
97	81
99	133
100	522
101	81
102	122
103	110
109	31
110	39
111	220
112	31
113	74
114	24
115	89
116	145
117	74
124	160
125	344
127	61
129	959
130	111
131	27
139	44
141	71
142	800
143	234
144	49
145	40
149	21
152	24
153	189
154	25
155	10
157	16
158	17
159	60
160	4
167	40
169	62
170	15
171	39
172	51
183	22
184	67
185	87
187	12
189	51
195	15
201	59
202	16
211	0
212	12
213	35
214	27
217	25
226	17
227	35
244	9
254	17
261	22
272	6
273	2
283	4
287	100
288	12
289	6
303	4
314	3
315	3
316	3
333	2
341	0
346	4
347	4
371	1
375	9
405	0
