Mass Spectrum: Methyl 6,7-di-O-acetyl-2,3,4-tri-O-methyl-.beta.-glycero-D-glucoheptopyranoside
Formula: C15H26O9
CAS: 84564-13-6
Molecular weight: 350
m/z	intensity
43	436
45	126
47	12
53	8
55	22
57	18
59	36
69	28
71	30
73	116
74	40
75	506
76	18
81	11
83	12
85	43
87	105
88	999
89	84
95	7
97	23
99	21
100	38
101	464
102	31
103	16
111	22
113	25
114	8
115	26
116	8
117	13
125	35
129	57
139	23
141	9
142	12
143	19
145	15
153	4
155	6
157	11
159	5
167	3
168	1
169	3
170	5
171	7
172	3
173	2
175	1
176	1
183	1
184	2
185	15
186	1
187	1
189	5
195	1
198	2
199	5
200	0
201	0
203	0
204	2
205	0
207	1
211	1
213	4
217	1
226	1
227	1
229	1
231	1
233	1
245	1
249	25
258	0
259	0
261	4
273	1
286	0
291	0
305	0
319	1
