Mass Spectrum: Methyl 2,3,6-tri-O-acetyl-4,7-di-O-methyl-.beta.-glycero-D-glucoheptopyranoside
Formula: C16H26O10
CAS: 84563-99-5
Molecular weight: 378
m/z	intensity
43	999
45	304
53	21
55	39
57	21
59	39
71	34
73	17
74	282
75	156
76	7
77	6
79	10
81	47
82	43
83	39
84	21
85	108
87	999
88	52
89	21
93	17
95	34
97	104
99	108
100	65
101	13
102	52
103	73
105	17
109	17
111	78
113	60
114	65
115	304
116	95
117	34
119	30
124	52
125	226
126	26
127	43
129	999
130	73
131	60
139	47
141	47
142	221
147	21
153	17
155	30
156	43
157	60
167	21
169	26
171	30
172	39
173	56
184	21
185	21
187	30
189	52
199	34
213	39
214	4
226	5
227	4
244	8
254	2
255	1
257	2
258	5
259	56
260	9
261	13
275	3
281	2
286	5
287	9
301	3
318	2
319	1
347	2
