Mass Spectrum: Methyl 4,6-di-O-acetyl-2,3,7-tri-O-methyl-.beta.-glycero-D-glucoheptopyranoside
Formula: C15H26O9
CAS: 84564-09-0
Molecular weight: 350
m/z	intensity
43	375
45	219
55	21
57	12
59	25
69	21
71	37
73	112
74	93
75	938
76	31
81	21
85	68
87	80
88	999
89	50
93	15
96	15
97	46
98	18
99	37
101	90
103	21
111	50
113	46
115	75
116	21
117	21
125	34
127	21
128	50
129	68
139	12
141	15
143	21
145	7
147	7
155	12
156	12
157	21
159	7
161	10
170	7
171	19
173	7
184	9
185	6
199	6
204	18
213	18
221	53
226	1
227	1
231	1
233	2
255	1
258	11
259	1
273	0
275	1
291	0
319	3
