Mass Spectrum: Methyl 4,6,7-tri-O-acetyl-2,3-di-O-methyl-.beta.-glycero-D-glucoheptopyranoside
Formula: C16H26O10
CAS: 84564-02-3
Molecular weight: 378
m/z	intensity
43	616
45	87
55	10
57	6
58	7
59	13
61	6
69	19
71	21
73	79
74	117
75	999
76	29
81	19
82	9
83	7
85	68
87	107
88	833
89	48
97	24
99	16
100	12
101	45
103	21
111	30
113	68
115	48
116	39
117	14
124	5
125	41
126	16
127	11
128	12
129	107
130	7
131	7
139	7
141	15
142	14
143	13
145	9
153	9
155	5
156	31
157	12
159	3
161	3
167	2
170	6
171	7
184	12
185	7
189	2
195	1
199	3
201	2
203	1
204	14
205	1
213	1
217	1
221	1
226	1
227	1
231	0
232	0
233	1
244	1
245	0
249	33
250	3
251	0
255	0
258	0
259	0
260	0
261	0
273	0
275	0
281	0
286	4
287	1
305	0
318	0
319	0
347	1
