Mass Spectrum: Methyl 6-O-acetyl-2,3,4,7-tetra-O-methyl-.beta.-glycero-D-glucoheptopyranoside
Formula: C14H26O8
CAS: 84564-15-8
Molecular weight: 322
m/z	intensity
43	88
45	166
55	14
57	12
59	29
69	8
71	27
73	66
74	23
75	688
76	22
77	5
79	2
81	6
83	8
85	52
87	133
88	999
89	79
95	6
97	8
98	22
99	22
101	355
111	13
113	14
114	21
115	27
116	11
117	14
119	54
124	2
125	4
127	10
129	99
131	27
133	2
139	16
141	13
142	11
143	12
145	11
147	27
155	5
157	7
159	10
161	13
171	13
173	5
176	4
185	5
198	2
199	2
200	1
201	3
202	1
204	1
215	1
217	1
219	3
221	77
233	17
236	5
246	1
247	1
261	0
265	1
281	0
291	1
