Mass Spectrum: Methyl 3,4-di-O-acetyl-2,6,7-tri-O-methyl-.beta.-glycero-D-glucoheptopyranoside
Formula: C15H26O9
CAS: 84564-05-6
Molecular weight: 350
m/z	intensity
43	999
45	389
53	22
55	28
57	29
59	149
69	149
71	104
73	44
74	999
75	479
81	34
82	34
83	30
85	224
87	569
88	179
89	479
95	17
97	71
99	107
100	164
101	164
103	59
105	7
109	11
111	193
113	46
114	44
115	61
116	671
117	74
125	119
127	149
129	402
130	40
139	59
141	26
142	59
143	357
153	19
154	20
156	44
157	119
161	14
167	10
169	16
170	23
171	79
172	11
173	10
175	4
181	10
185	477
186	53
187	19
189	13
199	32
201	10
203	25
213	38
214	3
215	2
216	1
217	3
226	1
227	2
230	16
231	31
232	4
233	1
245	47
247	14
258	5
261	0
273	0
275	5
291	3
305	52
319	1
