Mass Spectrum: 2-Phenylglycine, TMS derivative
Formula: C11H17NO2Si
CAS: 84569-95-9
Molecular weight: 223
m/z	intensity
15	8
27	10
28	24
29	7
30	11
39	15
42	5
43	21
44	11
45	61
46	5
47	30
50	11
51	54
52	11
53	4
58	9
59	11
60	5
61	17
63	5
65	8
72	6
73	129
74	17
75	151
76	17
77	128
78	29
79	36
80	3
91	4
103	40
104	53
105	27
106	999
107	84
108	3
116	5
117	4
135	5
164	3
178	3
180	3
190	7
208	31
209	5
223	93
224	18
225	5
