Mass Spectrum: 1-Trimethylsiloxy-2-(1-cyclohexenyl)ethane
Formula: C11H22OSi
CAS: 84569-41-5
Molecular weight: 198
m/z	intensity
13	1
14	7
16	1
26	4
27	38
29	25
30	1
31	7
32	2
37	0
38	1
39	52
40	9
41	73
42	7
43	16
45	76
46	7
47	46
48	2
49	2
50	4
51	13
52	10
53	41
54	12
55	36
56	3
57	13
58	38
59	34
60	10
61	35
62	4
63	7
64	2
65	19
66	36
67	59
68	6
69	6
70	10
71	7
72	26
73	999
74	99
75	186
76	22
77	50
78	57
79	219
80	91
81	29
82	3
83	5
84	12
85	9
86	1
87	10
88	13
89	51
90	5
91	42
92	16
93	253
94	44
95	13
96	2
97	10
98	2
99	8
100	1
101	34
102	8
103	536
104	64
105	34
106	3
107	65
108	457
109	49
110	3
111	4
112	2
113	2
114	1
115	3
116	3
117	2
121	1
123	2
125	14
126	2
127	13
128	2
129	2
135	1
137	2
139	2
140	1
141	1
142	1
143	0
149	1
151	1
153	11
154	2
155	12
156	2
165	3
166	1
167	2
168	2
169	1
183	107
184	16
185	5
197	2
198	76
199	14
200	4
