Mass Spectrum: 2,5-Methano-1H-inden-8-ol, 2,3,3a,4,5,7a-hexahydro-
Formula: C10H14O
CAS: 84580-97-2
Molecular weight: 150
m/z	intensity
27	72
28	16
29	46
31	28
38	9
39	151
40	20
41	141
42	15
43	62
44	12
45	7
50	19
51	67
52	31
53	70
54	115
55	63
57	85
58	10
59	21
63	29
64	13
65	99
66	62
67	104
68	17
69	19
70	21
71	17
72	18
75	15
77	360
78	201
79	626
80	138
81	128
82	26
83	41
84	7
89	13
90	10
91	999
92	308
93	153
94	85
95	73
96	41
101	11
103	23
104	389
105	67
106	33
107	61
108	58
109	40
115	50
116	28
117	963
118	95
119	287
120	27
121	41
122	19
128	7
129	18
131	166
132	500
133	55
135	15
149	27
150	455
151	48
