Mass Spectrum: Methyl .beta.-[N-methylanilino]acrylate
Formula: C11H13NO2
CAS: 84591-20-8
Molecular weight: 191
m/z	intensity
41	83
42	208
43	54
45	101
47	55
48	9
49	220
50	174
51	512
52	114
53	84
54	36
55	51
59	166
61	13
62	44
63	135
64	80
65	229
66	171
67	28
68	9
69	10
71	20
74	67
75	71
76	60
77	680
78	146
79	251
80	29
82	9
84	143
85	8
86	91
88	20
89	48
90	29
91	136
92	48
93	22
94	132
95	16
98	8
102	18
103	35
104	134
105	67
106	999
107	538
108	55
112	10
113	10
115	52
116	20
117	114
118	63
119	35
120	73
121	35
123	16
126	9
127	20
128	25
130	58
131	67
132	219
133	61
134	51
142	20
143	36
144	65
145	16
146	17
147	27
159	32
160	168
161	31
190	31
191	182
192	26
193	9
