Mass Spectrum: 4,5-(Decamethylene)thiazole
Formula: C13H21NS
CAS: 84648-04-4
Molecular weight: 223
m/z	intensity
36	1
38	3
39	259
40	40
41	491
42	76
43	52
44	19
45	209
46	9
47	29
51	48
52	21
53	104
54	49
55	183
56	29
57	25
58	120
59	45
60	13
61	0
62	10
63	17
64	8
65	78
66	15
67	115
68	32
69	67
70	32
71	102
72	30
73	25
74	2
75	1
76	3
77	79
78	25
79	64
80	25
81	50
82	30
83	22
84	111
85	105
86	43
87	13
89	11
91	84
92	16
93	22
94	21
95	25
96	13
97	158
98	67
99	174
100	45
101	12
102	8
103	8
104	4
105	45
106	16
107	16
108	8
109	8
110	11
111	320
112	465
113	999
114	110
115	66
116	0
117	4
119	17
120	47
121	12
122	12
123	1
124	102
125	140
126	528
127	198
128	27
129	8
130	3
131	6
133	16
134	20
135	1
136	38
137	15
138	274
139	175
140	308
141	51
142	19
146	3
147	8
148	4
149	6
150	2
152	188
153	82
154	86
155	20
156	2
161	0
162	46
163	9
164	0
165	2
166	271
167	47
168	72
169	26
170	4
177	6
180	348
181	53
182	153
183	13
184	9
190	220
191	21
194	82
195	37
196	4
208	48
221	1
222	63
223	608
224	101
225	29
