Mass Spectrum: Thiazolidin-4-one, 2-methyl-2-(8-carbomethoxyoctyl)-
Formula: C14H25NO3S
CAS: 84655-79-8
Molecular weight: 287
m/z	intensity
41	138
42	407
43	136
44	88
45	55
46	56
47	78
53	46
54	38
55	204
56	64
57	656
58	59
59	64
60	21
61	21
67	33
68	14
69	59
70	415
71	78
74	33
81	100
82	42
83	33
84	59
87	58
88	49
89	38
95	44
96	30
97	15
98	37
99	73
101	24
102	13
110	12
112	26
115	93
116	999
117	164
118	111
126	12
128	27
131	13
138	13
142	12
144	32
147	6
152	4
154	13
166	42
182	81
183	9
212	47
213	6
214	101
215	16
222	17
223	11
224	11
240	35
255	26
257	134
258	17
272	20
287	95
