Mass Spectrum: Arglabin
Formula: C15H18O3
CAS: 84692-91-1
Molecular weight: 246
m/z	intensity
40	102
41	521
42	33
43	999
44	21
45	13
50	25
51	133
52	81
53	497
54	73
55	306
56	15
57	16
58	21
62	6
63	43
64	14
65	148
66	78
67	345
68	66
69	74
70	7
71	46
75	7
77	320
78	98
79	339
80	114
81	207
82	38
83	16
85	5
89	9
91	205
92	32
93	116
94	60
95	444
96	863
97	119
98	7
103	25
104	13
105	165
106	48
107	339
108	76
109	392
110	99
111	37
115	37
116	22
117	73
118	16
119	81
120	79
121	98
122	65
123	177
124	24
125	30
127	8
128	29
129	58
130	22
131	107
132	55
133	161
134	48
135	33
136	11
137	24
138	45
139	27
140	9
141	20
142	31
143	69
144	41
145	119
146	41
147	83
148	116
149	51
150	17
151	84
152	11
153	6
155	10
156	11
157	78
158	34
159	81
160	79
161	95
162	24
163	26
164	5
165	9
167	60
168	7
169	22
170	14
171	34
172	30
173	76
174	31
175	164
176	117
177	21
178	56
179	6
183	17
184	10
185	116
186	35
187	50
188	423
189	162
190	37
191	11
199	22
200	80
201	38
202	37
203	321
204	56
205	9
210	5
211	19
213	302
214	44
215	12
217	10
218	23
219	6
227	7
228	218
229	43
230	6
231	110
232	17
246	354
247	57
248	13
