Mass Spectrum: Cyclohexanecarboxylic acid, 2-(2-propenyl)-, methyl ester
Formula: C11H18O2
CAS: 84694-72-4
Molecular weight: 182
m/z	intensity
26	6
27	98
28	23
29	73
30	4
31	7
33	6
37	2
38	7
39	174
40	32
41	342
42	25
43	43
44	4
45	32
46	3
50	9
51	28
52	19
53	121
54	165
55	215
56	16
57	17
58	4
59	117
60	4
61	8
62	2
63	9
64	3
65	39
66	44
67	346
68	145
69	69
70	7
71	28
72	6
73	20
74	67
75	15
76	3
77	74
78	42
79	202
80	156
81	999
82	203
83	32
84	11
85	26
86	3
87	145
88	36
89	5
91	40
92	12
93	116
94	103
95	179
96	46
97	16
98	8
99	16
100	34
101	12
102	5
103	4
104	7
105	9
106	50
107	66
108	161
109	107
110	15
111	22
112	8
113	46
114	15
115	9
116	3
117	8
119	5
120	2
121	48
122	663
123	268
124	50
125	20
126	8
127	21
128	8
129	2
132	6
133	19
134	3
135	33
136	4
137	4
138	5
139	28
140	72
141	49
142	5
149	7
150	189
151	105
152	15
153	29
154	41
155	6
156	3
165	3
166	2
167	9
168	2
169	2
170	3
181	5
182	122
183	19
184	2
