Mass Spectrum: Acetamide, N-(5,6,7,8-tetrahydro-4-oxo-4H-cyclohepta[b]thien-2-yl)-
Formula: C11H13NO2S
CAS: 84703-04-8
Molecular weight: 223
m/z	intensity
45	465
46	191
47	59
48	3
49	4
50	8
51	64
52	66
53	123
54	35
55	194
56	56
57	5
59	150
60	167
61	140
62	8
63	24
64	4
65	85
66	66
67	89
68	39
69	148
70	24
71	39
72	11
73	45
75	27
76	68
77	66
78	71
79	85
80	70
81	20
82	76
83	77
84	33
86	6
88	3
90	15
91	163
92	39
93	56
94	51
95	13
96	19
97	89
98	51
99	31
101	13
102	7
103	20
104	18
105	25
106	16
107	10
108	16
109	39
110	73
111	156
112	32
115	3
116	18
117	12
118	43
119	31
120	89
121	9
123	27
124	46
125	999
126	128
127	77
128	9
129	6
130	7
131	8
134	8
135	27
136	18
137	18
138	60
139	26
140	61
141	11
142	12
143	4
144	3
145	5
146	4
147	23
148	30
149	13
150	3
151	175
152	301
153	36
154	13
156	3
157	11
159	4
161	2
162	6
163	8
164	3
165	6
170	4
173	4
177	3
179	3
180	46
181	777
182	96
183	51
184	5
185	5
194	3
196	3
197	7
198	5
199	3
200	3
201	5
211	3
216	3
219	4
221	8
223	339
224	58
225	19
