Mass Spectrum: 2-Methyl-5,5-di(2-cyanoethyl)tetrahydropyran-4-one
Formula: C12H16N2O2
CAS: 84716-44-9
Molecular weight: 220
m/z	intensity
41	265
42	199
43	429
44	97
45	109
53	209
54	99
55	174
56	109
57	82
59	174
67	265
69	185
79	60
80	187
81	82
82	60
83	118
87	304
94	999
95	124
106	71
107	187
108	915
109	87
110	46
120	35
123	57
124	37
133	49
134	371
135	226
136	49
148	265
178	215
180	54
220	115
