Mass Spectrum: 2-Phenylprop-1-ene (1-3)sultine
Formula: C9H8O2S
CAS: 84735-14-8
Molecular weight: 180
m/z	intensity
39	170
50	190
51	290
63	180
76	160
77	280
102	450
103	970
104	999
105	140
115	360
131	160
132	270
135	380
163	240
180	390
