Mass Spectrum: 2-Ethylprop-1-ene (1-3)sultine
Formula: C5H8O2S
CAS: 84735-13-7
Molecular weight: 132
m/z	intensity
27	510
28	320
29	440
39	470
41	300
43	180
45	220
53	460
55	999
67	150
83	280
85	190
86	410
132	150
