Mass Spectrum: Cyclohexanebutanoic acid, 2-oxo-, ethyl ester
Formula: C12H20O3
CAS: 84751-60-0
Molecular weight: 212
m/z	intensity
27	21
28	93
29	396
30	410
31	18
33	217
36	13
38	12
39	207
40	71
41	599
42	217
43	269
44	83
45	139
46	10
47	10
48	9
50	11
51	27
52	22
53	103
54	131
55	630
56	87
57	93
58	28
59	31
60	187
61	120
62	10
63	13
64	10
65	40
66	29
67	236
68	131
69	239
70	281
71	78
72	17
73	154
74	34
75	12
77	49
78	21
79	128
80	103
81	151
82	67
83	263
84	110
85	48
86	31
87	50
88	184
89	24
91	58
92	22
93	92
94	58
95	148
96	93
97	224
98	999
99	150
100	23
101	66
102	29
103	12
104	18
105	30
106	20
107	32
108	17
109	79
110	163
111	259
112	48
113	21
114	41
115	63
116	13
117	11
119	30
120	61
121	440
122	70
123	42
124	88
125	116
126	18
127	21
128	14
129	45
130	15
131	11
133	19
134	7
135	16
136	12
137	49
138	311
139	49
140	7
141	11
142	23
143	56
144	10
147	11
148	100
149	155
150	24
151	24
155	12
165	12
166	210
167	175
168	23
169	5
170	15
212	157
213	24
