Mass Spectrum: d-Allo-dec-2-enonic acid, 5,8-anhydro-2,3,4,9-tetradeoxy-8-C-(hydroxymethyl)-3-methyl-7,8-O-(1-methylethylidene)-, methyl ester, 10-acetate, (E)-
Formula: C18H28O8
CAS: 84781-84-0
Molecular weight: 372
m/z	intensity
25	1
26	14
27	104
29	186
30	14
31	194
33	4
34	10
36	2
37	2
38	7
39	108
40	149
41	254
42	78
43	999
44	274
45	124
46	6
47	8
48	1
49	3
50	7
51	17
52	10
53	90
54	42
55	354
56	124
57	158
58	40
59	631
60	48
61	70
62	5
63	8
64	4
65	33
66	19
67	128
68	55
69	204
70	92
71	148
72	31
73	123
74	54
75	29
76	6
77	42
78	16
79	65
80	33
81	116
82	125
83	474
84	102
85	163
86	56
87	56
88	25
89	11
90	5
91	65
92	30
93	41
94	30
95	416
96	130
97	139
98	45
99	178
100	49
101	66
102	9
103	16
104	10
105	36
106	19
107	54
108	25
109	88
110	45
111	271
112	84
113	202
114	172
115	172
116	16
117	22
118	7
119	23
120	16
121	43
122	25
123	194
124	48
125	163
126	250
127	127
128	50
129	50
130	22
131	30
132	7
133	30
134	8
135	42
136	16
137	63
138	25
139	40
140	47
141	666
142	78
143	84
144	14
145	15
146	12
147	16
148	7
149	50
150	14
151	38
152	15
153	54
154	28
155	345
156	59
157	123
158	20
159	226
160	26
161	20
162	7
163	21
164	8
165	18
166	20
167	160
168	26
169	25
170	8
171	24
172	50
173	170
174	21
175	19
176	10
177	46
178	14
179	30
180	10
181	29
182	8
183	169
184	22
185	44
186	12
187	35
188	6
189	6
190	5
191	15
192	9
193	17
194	9
195	21
196	10
197	21
198	8
199	27
200	18
201	439
202	51
203	12
204	13
205	69
206	15
207	18
208	9
209	23
210	29
211	12
212	6
213	6
214	2
215	24
216	4
217	4
218	9
219	23
220	7
221	10
222	13
223	52
224	12
225	12
226	8
227	19
228	10
229	5
230	2
231	2
232	1
233	2
234	2
235	8
236	21
237	20
238	11
239	10
240	6
241	21
242	5
243	4
244	2
245	2
246	2
247	6
248	4
249	2
250	2
251	2
252	3
253	5
254	10
255	21
256	5
257	5
258	10
259	86
260	13
261	3
262	2
263	2
264	6
265	13
266	4
267	9
268	6
269	3
270	1
271	26
272	4
273	2
274	1
275	3
276	23
277	6
278	4
279	7
280	8
281	7
282	7
283	22
284	6
285	7
286	2
287	1
288	0
293	0
294	3
295	1
296	68
297	16
298	6
299	2
300	1
301	0
302	0
303	0
306	0
307	0
308	1
309	0
310	1
311	1
312	6
313	2
314	6
315	2
322	4
323	1
324	0
325	4
326	1
327	1
328	1
329	0
330	0
339	0
340	2
341	38
342	8
343	3
344	0
345	0
352	0
353	0
354	7
355	2
356	0
357	73
358	15
359	5
360	0
371	2
372	3
373	1
374	0
