Mass Spectrum: 4-Octanol, propanoate
Formula: C11H22O2
CAS: 84782-05-8
Molecular weight: 186
m/z	intensity
23	0
24	0
26	28
27	284
28	75
29	547
30	14
31	13
37	0
39	80
40	8
41	212
42	53
43	111
44	31
45	9
46	0
47	0
48	0
50	1
51	3
52	2
53	14
54	12
55	96
57	999
58	35
59	3
60	0
62	0
63	0
64	0
65	2
66	0
67	9
68	7
69	31
70	47
71	53
72	12
73	7
74	4
75	23
76	1
77	1
79	1
80	0
81	1
82	7
83	27
84	15
85	11
86	1
87	0
95	0
97	2
98	0
99	0
100	2
101	2
102	0
110	0
112	23
113	3
114	1
115	0
116	0
127	0
129	29
130	2
131	0
143	17
144	2
145	0
157	0
