Mass Spectrum: Pregnan-20-one, (5.alpha.)-
Formula: C21H34O
CAS: 848-62-4
Molecular weight: 302
m/z	intensity
40	36
41	474
42	9
43	999
44	28
50	20
51	26
52	18
53	137
54	34
55	528
56	37
57	28
58	16
59	20
63	7
64	3
65	61
66	37
67	542
68	127
69	160
70	14
71	304
72	17
73	4
74	3
75	2
76	3
77	152
78	44
79	371
80	111
81	520
82	69
83	151
84	539
85	129
86	17
87	2
88	2
89	5
90	3
91	247
92	63
93	330
94	124
95	472
96	65
97	75
98	22
99	16
100	1
101	3
102	3
103	18
104	16
105	176
106	68
107	259
108	144
109	418
110	63
111	35
112	2
113	4
114	1
115	19
116	8
117	39
118	23
119	125
120	67
121	293
122	192
123	157
124	27
125	8
126	1
127	3
128	13
129	18
130	11
131	45
132	42
133	113
134	165
135	311
136	81
137	56
138	18
139	5
141	4
142	7
143	12
144	3
145	55
146	25
147	145
148	106
149	251
150	56
151	35
152	1
153	1
154	2
155	3
156	2
157	8
158	5
159	59
160	23
161	110
162	103
163	102
164	20
165	12
171	14
172	1
173	39
174	66
175	135
176	39
177	34
178	8
179	5
185	6
186	1
187	32
188	25
189	53
190	16
191	15
192	115
193	40
194	3
199	24
200	4
201	32
202	20
203	65
204	16
205	12
206	11
207	1
213	13
214	11
215	73
216	41
217	711
218	178
219	39
220	5
227	17
228	5
229	38
230	19
231	59
232	62
233	16
241	5
242	23
243	23
244	152
245	59
246	9
247	8
255	29
256	24
257	67
258	56
259	90
260	20
261	1
269	78
270	20
271	3
272	1
273	8
274	1
283	1
284	144
285	41
286	8
287	345
288	80
289	5
302	570
303	121
304	16
