Mass Spectrum: 2,3-Butanediol, 1,4-bis(dimethylamino)-
Formula: C8H20N2O2
CAS: 84808-89-9
Molecular weight: 176
m/z	intensity
26	2
27	15
28	19
29	22
30	33
31	6
38	1
39	7
40	2
41	21
42	81
43	39
44	74
45	54
46	11
47	1
49	0
50	1
51	3
52	1
53	4
54	3
55	15
56	12
57	35
58	999
59	87
60	38
61	1
65	1
66	1
67	6
68	6
69	9
70	40
71	15
72	10
73	9
74	3
75	7
76	1
77	11
78	4
79	6
80	2
81	7
82	8
83	7
84	7
85	2
86	6
87	9
88	92
89	8
90	0
91	3
92	1
93	2
94	5
95	5
96	4
97	5
98	7
99	8
100	267
101	21
102	2
103	1
104	1
105	4
106	2
107	7
108	1
109	3
110	4
111	3
112	7
113	3
114	3
115	4
116	5
117	4
118	247
119	16
120	5
121	2
122	3
123	3
124	1
125	1
126	4
127	1
128	1
129	3
130	2
131	2
132	8
133	5
134	1
135	2
136	1
137	2
138	3
139	4
140	2
141	5
142	1
143	2
157	2
158	13
159	3
