Mass Spectrum: 1,3-Diphenyl-2-hydroxy-4-benzoyl-4H-pyridazino(3,2-a)isoquinoline
Formula: C31H22N2O2
CAS: 84802-67-5
Molecular weight: 454
m/z	intensity
77	60
103	148
104	272
105	999
106	79
121	148
122	68
216	70
217	221
218	251
219	69
246	652
247	129
349	160
350	49
454	650
455	221
