Mass Spectrum: Cyclohexene, 6-butyl-1-nitro-
Formula: C10H17NO2
CAS: 84820-13-3
Molecular weight: 183
m/z	intensity
26	24
27	362
28	79
29	568
30	126
31	27
36	2
37	5
38	18
39	366
40	71
41	999
42	80
43	390
44	21
45	15
46	6
47	2
50	35
51	131
52	126
53	283
54	105
55	537
56	93
57	473
58	32
59	96
60	9
61	2
62	7
63	33
64	13
65	162
66	94
67	571
68	158
69	204
70	37
71	228
72	18
73	11
74	8
75	14
76	8
77	376
78	129
79	888
80	283
81	947
82	110
84	19
85	36
86	7
87	9
88	4
89	9
90	3
91	160
92	45
93	216
94	246
95	515
96	216
97	380
98	91
99	14
100	4
101	3
102	5
103	8
104	6
105	27
106	25
107	95
108	135
109	58
110	75
111	95
112	64
113	28
114	5
115	9
116	4
117	5
118	7
119	9
120	49
121	45
122	39
123	20
124	37
125	13
126	29
127	129
128	39
129	15
130	3
131	6
132	7
133	12
134	8
135	46
136	58
137	80
138	34
139	7
140	9
141	10
142	2
146	5
147	2
148	55
149	48
150	20
151	12
152	4
153	6
154	32
155	6
164	13
165	23
166	88
167	15
168	5
182	3
183	34
184	5
185	2
