Mass Spectrum: (2S,6R)-2-Methyl-6-nonylpiperidine
Formula: C15H31N
CAS: 848415-28-1
Molecular weight: 225
m/z	intensity
54	10
55	38
56	37
57	8
69	13
79	3
81	17
82	16
83	6
96	10
98	999
99	72
100	3
107	2
124	6
126	4
138	3
182	6
183	2
196	1
210	19
211	4
224	6
225	2
