Mass Spectrum: 4-Methyl-6-(p-tolyl)-5,6,7,8-tetrahydro-4H-1,3,2,6-dioxathiazocine 2-oxide
Formula: C12H17NO3S
CAS: 84868-74-6
Molecular weight: 255
m/z	intensity
89	39
90	42
91	289
92	41
104	9
105	62
106	9
117	35
118	200
119	999
120	131
121	22
131	55
132	31
133	32
146	47
147	60
149	41
161	36
191	39
192	5
211	160
212	19
213	5
225	93
239	21
255	224
256	41
257	19
