Mass Spectrum: 6-[(1Z)-1,3-Butadienyl]-1,4-cycloheptadiene
Formula: C11H14
CAS: 84899-15-0
Molecular weight: 146
m/z	intensity
37	4
38	29
39	490
40	76
41	298
42	12
43	1
44	0
45	0
46	0
47	0
48	0
49	2
50	66
51	217
52	92
53	176
54	19
55	31
56	1
57	12
58	16
59	1
60	0
61	2
62	24
63	101
64	41
65	276
66	193
67	148
68	299
69	15
70	2
71	20
72	3
73	0
74	10
75	11
76	11
77	502
78	208
79	962
80	474
81	47
82	1
84	0
85	0
86	3
87	3
88	1
89	34
90	7
91	999
92	628
93	50
94	1
98	0
99	0
100	0
101	1
102	16
103	138
104	224
105	527
106	41
107	0
110	0
111	0
113	0
114	0
115	146
116	71
117	314
118	80
119	8
120	0
126	1
127	14
128	52
129	45
130	19
131	164
132	14
133	0
139	1
140	0
141	3
142	0
143	1
144	0
145	15
146	35
147	2
