Mass Spectrum: 3-[(1Z)-1,3-Butadienyl]-4-vinylcyclopentene
Formula: C11H14
CAS: 84926-65-8
Molecular weight: 146
m/z	intensity
36	4
37	4
38	33
39	511
40	65
41	272
42	8
43	2
44	1
45	1
49	2
50	61
51	211
52	85
53	160
54	14
55	20
56	1
57	4
58	11
59	3
61	4
62	22
63	104
64	27
65	275
66	183
67	114
68	60
69	4
70	1
71	10
73	1
74	10
75	12
76	11
77	532
78	193
79	895
80	588
81	51
85	1
86	4
87	5
88	2
89	33
90	8
91	999
92	631
93	51
94	2
98	1
99	0
101	2
102	16
103	177
104	141
105	701
106	52
107	2
108	0
113	1
114	1
115	196
116	97
117	574
118	120
119	23
120	2
126	2
127	14
128	53
129	56
130	18
131	284
132	21
133	1
139	1
141	4
142	1
143	4
145	20
146	53
147	5
