Mass Spectrum: 1,2,4-Tri-O-acetyl-3,5-di-O-methylribitol
Formula: C13H22O8
CAS: 84925-33-7
Molecular weight: 306
m/z	intensity
41	140
42	98
43	999
44	66
45	128
46	15
51	21
55	63
56	42
57	149
58	48
59	83
60	33
65	51
66	15
67	30
68	18
69	51
70	39
71	152
72	18
73	42
74	42
75	48
77	39
78	42
79	21
80	15
81	51
82	33
83	18
84	29
85	57
87	400
88	18
89	15
91	60
92	21
93	30
94	21
95	30
96	18
97	39
98	24
99	86
100	30
101	232
102	36
103	48
104	18
105	33
106	18
107	15
108	33
109	15
111	33
112	36
113	45
115	42
117	54
119	63
125	18
126	36
127	29
128	36
129	964
130	80
131	36
132	18
133	39
134	18
135	122
136	24
137	21
138	18
139	15
140	21
141	75
142	33
143	15
144	18
145	54
147	54
149	39
150	18
151	12
152	21
153	15
154	21
155	39
156	39
157	29
158	21
159	74
160	30
161	232
162	24
163	12
164	15
165	36
166	21
167	21
168	24
169	30
170	15
171	18
172	15
173	21
174	21
175	12
176	24
177	15
178	36
179	28
180	21
181	24
182	10
183	18
184	39
185	21
186	51
187	24
189	179
190	18
191	30
193	18
194	15
195	15
