Mass Spectrum: 5-Iodo-2,3-dimethylbenzene-1,4-diol, 1-O-[.beta.-methyl-2-butenoate] ester
Formula: C13H15IO3
CAS: 84944-98-9
Molecular weight: 346
m/z	intensity
41	4
42	1
43	7
50	5
51	14
52	8
53	66
54	11
55	110
56	4
57	1
62	1
63	6
64	2
65	8
66	3
67	8
68	1
69	3
71	1
74	1
75	1
76	1
77	34
78	7
79	29
80	12
81	4
82	14
83	999
84	53
85	3
89	4
90	4
91	9
92	1
93	3
94	1
95	1
97	1
105	1
107	31
108	13
109	3
119	1
120	1
121	2
123	1
127	5
128	1
135	8
136	6
137	14
138	6
149	1
152	2
153	1
163	6
164	1
175	1
178	1
179	1
180	1
181	2
191	1
192	1
204	1
205	1
217	1
218	1
220	2
233	1
234	1
235	4
245	1
247	1
249	6
254	1
262	1
263	68
264	776
265	71
266	6
301	1
302	1
345	1
346	454
347	65
348	6
