Mass Spectrum: Cyclohexane-1,4-diylbis(methylene) bis(2,2,2-trifluoroacetate)
Formula: C12H14F6O4
CAS: 849471-68-7
Molecular weight: 336
m/z	intensity
15	1
27	29
28	9
29	46
30	2
31	4
33	3
39	71
40	15
41	137
42	10
43	25
44	2
45	3
47	5
50	10
51	13
52	9
53	87
54	68
55	171
56	10
57	6
59	14
60	1
63	2
65	34
66	42
67	474
68	63
69	374
73	2
77	69
78	56
79	367
80	211
81	97
82	8
83	8
84	1
85	2
89	1
91	101
93	55
94	91
95	999
96	79
97	48
99	51
103	2
105	16
106	9
107	84
108	649
109	541
110	45
111	5
112	2
113	1
115	1
125	10
127	10
135	7
136	1
139	1
151	1
153	14
154	1
160	1
163	1
166	10
167	2
168	1
174	1
180	8
181	1
186	1
189	1
192	13
193	4
194	3
204	23
205	4
222	49
223	7
267	89
268	10
