Mass Spectrum: 2,3-Dimethybenzene-1,4-diol, mono[.beta.-methylbutenoate] ester
Formula: C13H16O3
CAS: 84944-96-7
Molecular weight: 220
m/z	intensity
41	28
42	5
43	24
44	1
45	1
47	1
48	1
49	9
50	8
51	23
52	11
53	71
54	27
55	236
56	10
57	1
62	1
63	6
64	1
65	24
66	12
67	18
68	2
69	4
75	1
76	1
77	32
78	6
79	39
80	6
81	19
82	24
83	999
84	56
85	3
86	8
88	1
89	2
90	2
91	27
92	3
93	2
94	12
95	9
96	1
97	1
103	1
105	1
107	22
108	7
109	10
110	3
119	3
120	2
121	7
122	0
123	33
124	4
135	1
136	2
137	70
138	687
139	53
140	5
175	1
179	0
205	1
206	0
220	163
221	23
222	2
