Mass Spectrum: N-Methyl-1-phenyl-2-butanamine
Formula: C11H17N
CAS: 84952-60-3
Molecular weight: 163
m/z	intensity
39	75
40	15
41	77
42	117
43	20
44	100
45	7
50	18
51	41
52	15
53	11
54	11
55	11
57	64
58	104
59	11
63	10
64	26
65	11
66	86
67	11
69	8
71	28
72	999
73	52
77	29
78	18
79	10
89	25
90	21
91	144
92	21
103	7
104	10
105	10
106	10
107	7
117	10
118	13
119	28
134	60
135	10
162	7
