Mass Spectrum: 6-Bromohexanoic acid, butyl ester
Formula: C10H19BrO2
CAS: 84970-50-3
Molecular weight: 250
m/z	intensity
27	235
28	84
29	356
30	22
31	26
34	3
35	7
36	28
37	13
38	38
39	339
40	74
41	947
42	290
43	263
44	52
45	54
48	19
49	14
50	13
51	22
52	11
53	79
54	65
55	582
56	999
57	525
58	23
59	14
60	522
61	116
62	7
63	5
65	13
66	7
67	71
68	53
69	982
70	87
71	64
72	11
73	286
74	19
75	3
76	2
77	2
78	2
79	6
80	12
81	16
82	16
83	13
84	7
85	7
86	21
87	45
88	14
89	2
93	21
94	3
95	28
96	6
97	308
98	26
99	7
100	3
101	46
102	3
104	2
105	3
106	5
107	52
108	7
109	50
113	13
114	8
115	183
116	183
117	13
118	2
119	3
120	3
121	9
123	4
125	4
126	5
127	6
129	17
130	3
132	3
133	6
134	4
135	6
136	2
137	5
141	3
143	8
148	11
149	19
150	12
151	25
153	2
171	8
176	10
177	421
178	36
179	399
180	30
193	2
194	17
195	250
196	39
197	240
198	15
199	2
251	3
253	3
