Mass Spectrum: Bicyclo[2.2.1]hept-5-ene-2,3-dimethanol
Formula: C9H14O2
CAS: 85-39-2
Molecular weight: 154
m/z	intensity
26	3
27	31
29	17
31	29
38	4
39	57
40	24
41	53
42	8
43	27
44	3
45	4
50	6
51	19
52	7
53	18
54	6
55	14
56	2
57	24
58	3
59	2
62	3
63	8
64	3
65	53
66	999
67	114
68	10
69	53
70	36
71	87
72	4
75	2
77	47
78	21
79	52
80	19
81	9
82	4
83	4
85	3
86	3
87	27
88	4
89	71
90	4
91	47
92	18
93	12
94	4
95	6
96	2
97	2
103	7
104	3
105	28
106	12
107	8
108	7
109	3
110	3
115	3
117	9
118	5
119	11
120	2
121	2
123	3
124	3
135	2
136	10
137	3
