Mass Spectrum: 1,6-Octadiene, 5,7-dimethyl-, (R)-
Formula: C10H18
CAS: 85006-04-8
Molecular weight: 138
m/z	intensity
26	15
27	188
28	34
29	147
30	4
37	4
38	19
39	319
40	55
41	612
42	39
43	137
44	4
50	17
51	42
52	19
53	114
54	53
55	999
56	66
57	35
58	2
62	3
63	9
64	3
65	36
66	17
67	235
68	37
69	208
70	20
71	4
74	1
77	30
78	6
79	48
80	32
81	184
82	94
83	531
84	59
85	4
91	10
92	2
93	7
94	18
95	122
96	119
97	29
98	3
105	2
107	2
108	1
109	12
110	15
111	2
121	1
123	34
124	3
138	5
139	1
