Mass Spectrum: 4-Methylpentyl 3-methylbutanoate
Formula: C11H22O2
CAS: 850309-45-4
Molecular weight: 186
m/z	intensity
26	2
27	50
28	9
29	79
30	2
31	6
37	1
38	4
39	104
40	25
41	460
42	159
43	685
44	26
45	17
50	2
51	6
52	2
53	24
54	9
55	145
56	819
57	644
58	34
59	34
60	58
61	64
62	2
63	1
65	3
66	2
67	26
68	15
69	419
70	26
71	10
72	9
73	3
74	1
77	1
79	2
81	5
82	8
83	77
84	677
85	999
86	54
87	72
88	3
89	1
99	4
100	19
101	33
102	30
103	862
104	48
105	4
111	1
113	1
115	11
116	41
117	3
126	1
127	1
128	1
129	18
130	1
142	1
143	72
144	18
145	2
158	1
171	1
186	1
