Mass Spectrum: Ethyl 3-mercaptopyruvate
Formula: C5H8O3S
CAS: 85089-26-5
Molecular weight: 148
m/z	intensity
41	62
42	224
43	184
44	54
45	354
46	221
47	999
48	66
53	23
55	56
56	28
57	103
58	31
59	61
60	30
61	45
62	26
63	25
64	23
65	32
67	15
68	15
69	82
70	30
71	56
72	5
73	43
74	511
75	379
76	65
77	91
78	90
79	51
82	21
83	36
84	8
85	36
86	4
87	44
88	27
89	80
90	24
91	77
92	24
93	56
95	9
97	29
99	29
101	29
102	10
103	76
104	22
105	60
106	76
107	68
108	17
109	4
114	5
115	37
116	30
118	21
119	80
120	99
121	55
122	5
132	10
133	34
134	20
146	9
147	89
148	467
149	30
150	24
151	1
