Mass Spectrum: Sulfur diimide, bis[(4-methylphenyl)sulfonyl]-
Formula: C14H14N2O4S3
CAS: 851-06-9
Molecular weight: 370
m/z	intensity
26	0
27	10
29	0
30	0
37	0
38	3
39	72
40	11
41	26
42	0
43	0
44	0
45	9
46	20
47	0
48	4
50	11
51	35
52	16
53	8
54	0
55	0
59	0
61	0
62	6
63	45
64	14
65	291
66	18
67	9
69	1
70	0
71	1
74	1
75	2
76	4
77	48
78	30
79	21
80	4
82	0
83	0
84	0
85	0
86	0
87	0
88	0
89	48
90	29
91	999
92	95
93	5
94	0
95	1
96	0
97	3
98	1
102	0
103	0
104	20
105	17
106	11
107	32
108	8
109	1
110	1
111	10
112	0
115	0
117	1
118	1
119	21
120	11
121	4
122	4
123	54
124	17
125	4
126	0
127	0
128	0
135	0
136	4
137	17
138	11
139	146
140	13
141	7
142	0
149	18
150	40
151	333
152	70
153	24
154	8
155	252
156	23
157	12
158	0
165	5
166	2
167	1
168	4
169	5
170	0
171	12
172	0
173	0
178	0
179	1
180	5
181	55
182	8
183	0
184	0
185	0
194	3
195	8
196	186
197	30
198	1
199	5
200	0
201	0
210	0
211	0
212	2
213	0
214	0
215	163
216	17
217	18
218	0
219	0
227	2
228	0
241	0
242	2
243	0
260	309
261	49
262	18
263	1
278	0
306	4
307	0
308	0
