Mass Spectrum: Propane-1,3-diol 2-nitrobenzeneboronate
Formula: C9H10BNO4
CAS: 85107-45-5
Molecular weight: 207
m/z	intensity
74	76
75	128
76	256
77	718
78	136
90	61
91	307
92	50
93	85
100	205
101	872
102	194
103	999
104	177
105	179
106	164
115	172
116	55
117	127
118	103
119	127
120	219
121	447
122	36
123	101
129	103
132	76
133	308
134	51
146	101
147	307
148	102
149	255
150	50
161	50
176	66
177	108
206	50
207	255
208	36
