Mass Spectrum: Methanone, (3,4-difluorophenyl)phenyl-
Formula: C13H8F2O
CAS: 85118-07-6
Molecular weight: 218
m/z	intensity
26	3
27	22
28	4
29	2
31	7
32	0
37	5
38	7
39	14
49	3
50	64
51	182
52	11
53	4
56	2
57	9
61	7
62	25
63	165
64	9
68	12
69	9
70	3
72	0
73	5
74	43
75	29
76	13
77	643
78	38
79	1
80	2
81	11
82	8
84	1
85	15
86	6
87	12
88	4
89	0
92	5
93	23
94	30
95	44
96	1
98	5
99	5
101	2
104	6
105	999
106	74
107	5
109	4
110	2
111	2
112	14
113	352
114	23
115	0
117	1
118	0
122	2
123	3
125	3
131	0
138	4
139	1
141	625
142	40
143	6
144	2
149	3
150	2
151	4
157	0
162	6
163	0
164	0
167	2
168	7
169	9
170	12
171	3
175	0
181	0
186	2
187	5
188	38
189	13
190	10
191	0
198	20
199	15
200	1
201	5
216	1
217	33
218	508
219	63
220	5
