Mass Spectrum: 2,6-Heptadienal, 2,4-dimethyl-
Formula: C9H14O
CAS: 85136-08-9
Molecular weight: 138
m/z	intensity
15	7
17	1
18	9
26	5
27	96
28	16
29	78
30	2
31	6
37	4
38	11
39	232
40	37
41	976
42	53
43	977
44	27
45	11
46	1
50	10
51	30
52	11
53	112
54	23
55	204
56	17
57	28
58	3
59	3
60	1
61	1
62	4
63	10
64	2
65	53
66	20
67	507
68	119
69	662
70	40
71	9
72	1
74	2
75	1
77	99
78	15
79	272
80	255
81	237
82	70
83	26
84	34
85	8
86	1
89	1
91	49
92	9
93	43
94	51
95	273
96	204
97	934
98	68
99	9
100	1
103	3
104	1
105	35
106	6
107	80
108	16
109	999
110	108
111	9
112	1
113	3
117	1
119	3
120	25
121	10
122	3
123	152
124	13
125	2
135	1
136	1
137	9
138	55
139	12
140	1
