Mass Spectrum: 1,2-Ethanediamine, N-(2-pyridinylmethylene)-N'-[2-[(2-pyridinylmethylene)amino]ethyl]-
Formula: C16H19N5
CAS: 85131-80-2
Molecular weight: 281
m/z	intensity
15	9
18	24
26	11
27	49
28	164
29	58
30	90
37	4
38	18
39	91
40	18
41	97
42	133
43	46
44	46
49	3
50	39
51	171
52	183
53	64
54	49
55	21
56	162
57	26
58	14
62	12
63	52
64	58
65	404
66	51
67	15
68	15
69	59
70	38
71	49
75	4
76	17
77	31
78	313
79	251
80	110
81	11
83	47
84	24
85	5
89	5
90	10
92	999
93	196
94	29
96	5
97	131
98	8
99	6
101	2
103	3
104	30
105	99
106	227
107	153
108	19
116	12
117	25
118	102
119	599
120	198
121	42
122	3
124	6
125	4
131	70
132	46
133	835
134	138
135	20
144	4
145	31
146	58
147	87
148	75
149	11
156	2
157	7
158	27
159	8
160	57
161	55
162	390
163	44
164	3
169	4
172	11
174	341
175	411
176	47
177	5
181	3
182	4
183	17
184	2
186	3
189	23
190	3
192	2
195	3
198	7
201	4
203	161
204	25
210	4
221	3
239	9
251	19
252	6
279	3
280	5
281	32
282	17
