Mass Spectrum: N-(exo-Bicyclo(4.1.0)hept-3-en-7-yl)-N'-(1-phenyl-2,3-dimethylpyrazol-5-on-4-yl)urea
Formula: C19H22N4O2
CAS: 85156-52-1
Molecular weight: 338
m/z	intensity
56	999
57	240
77	200
79	340
84	430
91	240
107	110
119	130
203	200
229	220
230	890
231	170
338	180
339	40
