Mass Spectrum: Cyclohexanecarboxylic acid, 4-hydroxy-2-oxo-4,6-diphenyl-, ethyl ester
Formula: C21H22O4
CAS: 85156-98-5
Molecular weight: 338
m/z	intensity
33	10
34	0
36	12
38	8
39	36
40	18
41	14
42	29
43	69
44	12
45	10
46	1
47	0
49	0
50	21
51	70
52	15
53	12
55	29
56	5
57	7
58	9
59	0
60	1
62	5
63	17
65	40
66	5
67	4
69	46
70	8
71	4
73	4
74	6
75	14
77	439
78	149
79	32
81	4
82	3
84	75
85	10
86	3
87	10
89	26
91	179
92	24
94	4
95	5
96	2
97	1
98	3
99	2
100	3
101	13
102	60
103	179
104	286
105	999
106	76
107	16
108	2
109	2
110	1
111	1
112	2
113	6
115	156
116	51
117	54
118	16
120	92
121	9
122	1
123	3
124	2
125	4
126	5
127	40
128	26
129	35
131	174
132	21
133	16
134	6
135	5
136	1
137	2
138	1
139	6
140	3
141	17
142	7
143	11
144	46
145	55
146	14
147	30
148	6
149	7
150	1
151	2
152	4
153	2
154	0
155	4
156	1
157	7
158	6
159	10
160	34
161	22
162	5
163	2
164	2
165	6
166	1
167	1
168	3
169	7
170	7
171	32
172	66
173	45
174	6
175	6
176	8
177	21
178	9
179	4
180	1
181	2
183	16
184	2
185	2
186	4
187	19
188	15
189	11
190	6
191	14
192	4
193	2
194	1
195	0
196	4
197	12
198	1
199	1
200	2
201	5
202	15
203	26
204	13
205	19
206	20
207	12
208	8
209	44
210	6
211	0
212	0
213	1
214	2
215	9
216	10
217	25
218	56
219	28
220	5
221	3
222	1
223	0
225	0
226	1
227	1
228	5
229	13
230	3
231	7
232	8
234	146
235	18
236	2
242	1
243	3
244	4
245	18
246	44
247	121
248	24
249	16
250	3
251	0
256	0
257	1
259	0
260	0
261	0
262	0
263	3
264	1
265	1
269	0
270	1
273	27
274	82
275	26
276	3
277	0
290	0
291	2
292	3
293	2
294	0
295	1
316	0
317	1
318	2
320	32
321	5
322	0
336	0
338	5
339	0
