Mass Spectrum: 2-Bromo-2-iodobicyclo[2.2.1]heptane
Formula: C7H10BrI
CAS: 85173-57-5
Molecular weight: 300
m/z	intensity
25	4
26	53
27	188
29	50
30	3
31	4
33	2
34	3
35	2
36	15
37	36
38	110
39	422
40	116
41	214
42	26
43	43
44	55
45	25
46	11
47	4
48	5
49	14
50	105
51	192
52	103
53	216
54	42
55	54
56	12
57	29
58	8
59	4
60	10
61	23
62	52
63	140
64	68
65	999
66	254
67	276
68	43
69	16
70	10
71	21
72	4
73	8
74	15
75	13
76	10
77	339
78	134
79	207
80	36
81	29
82	14
83	14
84	9
85	16
86	8
87	8
88	5
89	23
90	16
91	332
92	79
93	715
94	231
95	182
96	27
97	12
98	8
99	7
100	6
101	4
102	5
103	5
104	20
105	14
106	8
107	16
108	7
109	10
110	11
111	9
112	5
113	5
114	2
115	9
116	4
117	10
118	6
119	25
120	4
121	21
122	4
123	5
124	4
125	5
126	10
127	106
128	32
129	18
130	6
131	10
132	6
133	8
134	6
135	6
136	2
137	4
138	3
139	4
140	4
141	8
142	6
143	6
144	93
145	20
146	93
147	17
148	1
152	5
153	5
154	2
155	26
156	2
157	4
159	4
160	1
161	2
162	2
163	3
164	2
165	12
166	2
167	12
168	1
169	2
170	1
171	9
172	22
173	324
174	67
175	317
176	48
177	4
178	2
179	2
180	1
181	1
182	1
183	2
184	2
185	4
186	5
187	4
188	2
189	4
190	2
191	10
192	974
193	146
194	6
195	1
196	1
197	1
198	3
199	2
200	2
201	9
202	3
203	1
205	3
206	8
207	1
208	5
209	1
211	7
212	2
213	8
214	3
219	2
220	350
221	379
222	60
223	4
224	1
225	1
228	2
300	144
301	12
302	137
303	10
