Mass Spectrum: Bicyclo[2.2.1]hept-2-ene-1-carboxylic acid, 6-bromo-, endo-
Formula: C8H9BrO2
CAS: 85173-59-7
Molecular weight: 216
m/z	intensity
26	9
27	68
29	21
31	7
36	17
37	11
38	24
39	150
40	54
41	47
42	9
43	27
44	29
45	43
49	5
50	18
51	47
52	18
53	31
54	12
55	25
56	7
57	18
59	21
60	10
61	8
62	16
63	36
64	23
65	150
66	328
67	35
68	8
69	19
70	7
71	7
73	9
74	5
75	5
76	5
77	87
78	19
79	45
80	9
81	35
82	311
83	29
84	6
85	7
87	5
89	17
90	13
91	242
92	46
93	49
94	7
95	6
105	6
106	9
107	5
108	6
109	16
110	999
111	78
112	10
119	39
120	7
121	5
123	5
127	6
135	5
136	12
137	214
138	23
139	6
198	6
200	6
216	34
217	6
218	34
219	6
