Mass Spectrum: Tetradecanoic acid, 2-hydroxyphenyl ester
Formula: C20H32O3
CAS: 85194-00-9
Molecular weight: 320
m/z	intensity
41	394
42	97
43	667
44	20
45	4
47	4
49	21
50	5
51	20
52	30
53	56
54	33
55	454
56	79
57	706
58	36
59	3
60	1
62	2
63	14
64	27
65	29
66	5
67	70
68	21
69	208
70	42
71	400
72	21
73	3
77	5
78	1
79	16
80	14
81	161
82	24
83	124
84	44
85	252
86	24
87	1
88	1
91	7
92	11
93	26
94	6
95	144
96	4
97	93
98	41
99	32
100	3
101	1
105	0
107	8
109	119
110	999
111	121
112	16
113	10
114	0
115	0
121	9
122	0
123	39
124	4
125	7
126	1
127	5
129	1
135	5
137	19
138	2
139	2
141	2
143	0
147	3
149	3
151	5
152	1
153	1
163	1
165	2
167	0
177	0
183	4
191	1
193	4
197	1
209	2
211	834
212	117
213	10
239	3
319	0
320	104
321	24
322	3
