Mass Spectrum: 5-(4-Ethoxy-2,4-dioxo-butylidene)oxacyclopentan-2-one
Formula: C10H12O5
CAS: 85195-93-3
Molecular weight: 212
m/z	intensity
39	171
42	148
43	402
55	519
56	149
57	310
67	188
69	407
70	150
81	119
83	409
84	108
85	130
95	139
96	348
97	309
98	138
123	247
124	230
125	999
126	120
142	129
143	118
212	150
