Mass Spectrum: (1-Iodo-2-nitrovinyl)benzene
Formula: C8H6INO2
CAS: 85212-28-8
Molecular weight: 275
m/z	intensity
26	5
27	12
28	7
29	4
30	29
36	0
37	10
38	17
39	57
40	3
41	5
42	1
43	7
44	1
45	3
46	8
49	9
50	114
51	101
52	91
53	7
54	1
55	11
56	1
57	3
59	1
60	2
63	101
64	12
65	35
66	3
67	1
68	5
69	2
70	1
71	1
72	1
73	11
74	92
75	104
76	222
77	198
78	18
79	1
80	1
81	6
82	1
83	1
84	1
85	4
86	7
87	18
88	5
89	38
90	74
91	15
92	102
93	27
94	3
95	1
96	0
97	3
98	15
99	6
100	4
101	29
102	999
103	127
104	15
105	448
106	39
107	3
110	0
111	1
114	1
115	1
116	2
117	2
118	177
119	20
120	60
121	7
122	1
127	31
128	5
129	1
130	2
131	2
132	7
133	1
135	0
136	0
138	0
143	1
147	2
148	158
149	28
150	3
162	1
165	1
166	0
167	1
176	1
182	2
190	1
193	1
205	1
210	1
215	1
217	16
218	2
219	2
220	1
222	2
228	2
229	9
230	5
231	0
232	0
244	1
245	6
246	2
247	106
248	9
249	0
258	17
259	2
274	5
275	73
276	8
