Mass Spectrum: Acetic acid, (3,5-dichlorophenyl)methyl ester
Formula: C9H8Cl2O2
CAS: 85263-04-3
Molecular weight: 218
m/z	intensity
14	4
15	27
26	2
27	2
28	2
29	18
30	1
31	2
35	2
36	3
37	7
38	12
39	25
40	1
41	3
42	21
43	999
44	38
45	5
47	2
48	1
49	11
50	53
51	40
52	4
53	2
55	2
60	5
61	24
62	58
63	87
64	6
65	1
71	1
72	5
73	58
74	65
75	124
76	13
77	52
78	5
79	8
80	5
81	1
83	4
84	15
85	28
86	24
87	31
88	12
89	106
90	9
91	1
95	1
96	3
97	23
98	3
99	28
100	2
101	7
102	1
103	1
105	3
106	2
107	6
108	5
109	62
110	21
111	169
112	33
113	97
114	11
115	16
116	1
119	2
120	2
121	2
123	292
124	53
125	99
126	17
127	2
131	1
133	28
134	1
135	18
136	1
137	4
138	1
139	12
140	9
141	352
142	31
143	113
144	10
145	64
146	16
147	93
148	14
149	42
150	4
151	6
157	2
158	20
159	307
160	36
161	195
162	16
163	32
164	3
165	1
173	36
174	9
175	42
176	732
177	72
178	466
179	38
180	77
181	6
218	130
219	13
220	85
221	8
222	15
223	1
