Mass Spectrum: 3,5-Dimethylpyrazole-1-methanol
Formula: C6H10N2O
CAS: 85264-33-1
Molecular weight: 126
m/z	intensity
15	3
25	1
26	10
27	27
29	17
30	11
31	4
36	1
37	11
38	29
39	160
40	46
41	137
42	127
43	27
44	1
47	14
49	3
50	20
51	42
52	49
53	35
54	275
55	80
56	38
57	7
60	2
61	12
62	24
63	40
64	8
65	76
66	32
67	38
68	61
69	17
77	1
78	11
79	8
80	4
81	189
82	9
94	9
95	794
96	999
97	63
98	1
