Mass Spectrum: 2-Cyclohexyl-3,5,5-trimethyl-1,3,2-oxazaphosphorinan 2-oxide
Formula: C12H24NO2P
CAS: 85289-29-8
Molecular weight: 245
m/z	intensity
41	199
44	999
55	137
56	100
67	29
68	28
98	40
106	29
162	39
190	994
191	140
245	89
