Mass Spectrum: 2-Chloro-3,5,5-trimethyl-1,3,2-oxazaphosphorinan 2-sulfide
Formula: C6H13ClNOPS
CAS: 85289-33-4
Molecular weight: 213
m/z	intensity
41	593
44	999
55	242
56	356
69	203
98	505
146	91
157	679
158	995
159	276
160	763
178	274
180	954
182	292
213	661
215	233
