Mass Spectrum: cis-syn-6-tert-Butylperhydroazulen-4(1H)-one
Formula: C14H24O
CAS: 85283-13-2
Molecular weight: 208
m/z	intensity
39	200
41	730
55	410
57	750
67	680
69	210
81	999
95	270
110	230
111	570
123	430
151	610
152	610
167	250
208	130
