Mass Spectrum: 2-Phenyl-3,5,5-trimethyl-1,3,2-oxazaphosphorinan 2-oxide
Formula: C12H18NO2P
CAS: 85289-28-7
Molecular weight: 239
m/z	intensity
41	126
44	999
55	70
56	120
84	30
98	19
184	994
185	128
239	59
