Mass Spectrum: 1-Butyl-5-(phenylamino)-1H-tetrazole
Formula: C11H15N5
CAS: 85285-41-2
Molecular weight: 217
m/z	intensity
50	175
51	586
52	107
53	64
54	22
55	281
56	58
57	416
58	29
62	17
63	83
64	90
65	539
66	84
67	26
68	14
69	134
70	54
71	38
72	45
74	30
75	38
76	154
77	999
78	190
79	41
80	11
81	17
83	15
84	35
85	23
90	23
91	232
92	629
93	333
94	34
95	22
97	27
98	8
103	104
104	279
105	145
106	145
107	18
117	59
118	885
119	533
120	54
125	175
126	10
129	43
130	20
131	55
132	48
133	616
134	100
135	10
144	7
145	16
146	341
147	311
148	51
160	154
161	28
173	23
174	160
175	32
188	486
189	66
216	45
217	650
218	87
219	6
