Mass Spectrum: 3,4,4,6-Tetramethyl-2-(p-nitrophenylimino)-2,3-dihydro-4H-1,3-thiazine
Formula: C14H17N3O2S
CAS: 85298-46-0
Molecular weight: 291
m/z	intensity
37	8
38	20
39	163
41	142
42	63
43	4
44	118
45	67
46	9
47	22
48	15
49	3
50	57
51	46
52	28
53	101
54	22
55	74
56	31
57	31
58	25
59	185
60	16
61	18
62	19
63	114
64	61
65	96
66	33
67	54
68	10
69	27
70	13
71	39
72	16
73	13
74	21
75	38
76	68
77	62
78	38
79	118
80	50
81	69
82	11
83	20
84	33
85	23
86	27
87	11
88	10
89	12
90	250
91	31
92	9
93	12
94	22
95	20
96	52
97	54
98	39
99	907
100	77
101	47
102	13
103	14
104	9
105	9
106	12
107	14
108	16
109	25
110	12
111	44
112	51
113	999
114	297
115	246
116	39
117	13
118	7
119	40
120	5
121	4
122	11
123	19
124	32
125	5
126	7
128	661
129	74
130	62
131	84
132	41
133	10
134	15
135	6
138	7
140	5
142	18
147	129
148	21
149	22
150	9
155	7
156	5
161	77
162	18
163	6
164	5
176	13
177	77
178	33
179	6
215	16
236	28
258	12
261	13
276	281
277	47
291	305
292	54
