Mass Spectrum: Cyclohexanemethanol, .alpha.-methyl-.alpha.-(1-methyl-2-propenyl)-, (R*,S*)-(.+-.)-
Formula: C12H22O
CAS: 85312-76-1
Molecular weight: 182
m/z	intensity
27	65
28	6
29	84
31	8
39	67
40	10
41	183
42	12
43	999
44	24
45	281
46	7
51	11
52	5
53	44
54	17
55	311
56	31
57	22
58	7
59	45
65	12
66	5
67	246
68	22
69	69
70	7
71	48
72	4
77	20
78	4
79	23
80	4
81	59
82	14
83	480
84	38
85	10
91	10
93	8
95	8
97	11
98	40
99	261
100	18
105	4
107	9
108	3
109	409
110	38
111	23
112	1
115	2
121	25
122	3
123	2
125	6
126	4
127	592
128	59
129	8
135	2
138	1
141	1
149	8
150	0
157	1
164	1
165	1
167	1
182	0
