Mass Spectrum: 4,5,6-Trimethyltetrahydro-1,3-oxazine-2-thione
Formula: C7H13NOS
CAS: 85333-98-8
Molecular weight: 159
m/z	intensity
12	2
13	2
15	52
25	3
26	17
27	166
28	89
29	150
30	30
31	43
32	2
33	5
34	7
38	5
39	152
40	28
41	36
42	484
43	999
44	254
45	151
46	9
47	4
48	3
50	6
51	13
52	9
53	34
54	21
55	276
56	318
57	76
58	12
59	30
60	56
61	24
62	4
65	6
66	3
67	59
68	12
69	34
70	48
71	72
72	15
73	13
74	11
75	6
77	3
78	8
79	5
81	13
82	56
83	103
84	119
85	12
86	29
87	9
88	9
91	5
95	4
96	7
97	6
98	13
99	8
100	6
101	5
102	7
103	30
104	77
105	6
106	6
109	7
110	6
111	4
112	7
113	4
116	12
126	15
127	4
129	3
130	44
131	4
132	4
144	15
159	595
160	50
161	26
162	5
