Mass Spectrum: 2-Furanmethanamine, N,N-diethyl-.alpha.-methyl-
Formula: C10H17NO
CAS: 85345-81-9
Molecular weight: 167
m/z	intensity
25	5
26	56
28	63
29	64
30	14
31	2
37	3
38	11
39	85
40	17
41	133
42	83
43	17
44	39
45	2
49	3
50	5
51	16
52	9
53	22
54	12
55	22
56	58
57	10
58	98
59	4
62	2
63	7
64	3
65	45
66	23
67	86
68	13
69	17
70	26
71	7
72	26
73	2
76	3
77	8
78	2
79	5
80	6
81	33
82	7
83	4
84	5
85	3
91	1
92	2
93	4
94	40
95	999
96	104
97	48
98	10
99	1
100	40
101	2
107	3
108	19
109	9
110	10
111	3
112	7
121	2
122	13
123	7
124	46
125	4
136	5
137	3
138	5
139	3
150	1
151	2
152	597
153	72
154	6
155	2
166	8
167	128
168	15
169	1
