Mass Spectrum: Carbamic acid, (cyanomethyl)-, 1,1-dimethylethyl ester
Formula: C7H12N2O2
CAS: 85363-04-8
Molecular weight: 156
m/z	intensity
26	8
27	70
28	73
29	199
30	20
31	44
37	2
38	7
39	92
40	69
41	415
42	17
43	95
44	29
45	6
50	4
51	5
53	15
54	6
55	40
56	277
57	999
58	35
59	925
60	24
73	4
74	8
82	2
83	13
97	15
101	24
112	11
141	12
