Mass Spectrum: 1-Butoxy-2-propanol acetate
Formula: C9H18O3
CAS: 85409-76-3
Molecular weight: 174
m/z	intensity
14	1
15	10
19	1
26	4
27	36
28	17
29	106
30	6
31	21
38	2
39	46
40	8
41	208
42	50
43	999
44	39
45	86
46	2
51	1
53	6
54	2
55	41
56	54
57	764
58	597
59	102
60	5
61	59
62	2
69	2
70	8
71	9
72	7
73	50
74	4
75	8
83	1
85	23
87	247
88	22
89	3
100	1
101	55
102	5
103	8
104	1
114	155
115	21
116	1
117	1
131	5
133	3
159	1
