Mass Spectrum: Divinyldithiophosphinic acid
Formula: C4H7PS2
CAS: 85417-00-1
Molecular weight: 150
m/z	intensity
45	59
55	59
56	52
57	226
58	48
59	93
60	37
61	33
63	999
64	74
65	141
83	122
85	104
87	274
89	22
90	281
91	252
92	37
95	44
96	30
117	500
118	33
119	26
123	37
124	33
126	15
150	741
151	56
152	78
