Mass Spectrum: Cyclohexanone, 3-benzyl-
Formula: C13H16O
CAS: 85450-51-7
Molecular weight: 188
m/z	intensity
26	4
27	81
28	2
29	36
31	2
37	0
38	5
39	148
40	6
41	607
42	35
43	23
44	0
50	13
51	54
52	14
53	31
54	12
55	433
56	14
57	3
58	6
62	6
63	32
64	13
65	148
66	12
67	34
68	19
69	749
70	39
71	3
74	3
75	4
76	5
77	41
78	22
79	35
80	2
81	6
82	2
83	6
84	28
85	2
86	0
87	1
88	1
89	26
90	9
91	471
92	108
93	8
94	1
95	4
96	11
97	788
98	48
99	6
101	0
102	7
103	18
104	26
105	12
106	1
107	1
110	1
114	0
115	67
116	22
117	84
118	19
119	1
120	1
127	9
128	17
129	47
130	999
131	108
132	8
133	2
134	9
135	0
141	7
142	5
143	5
144	8
145	10
146	2
155	1
159	0
160	0
169	2
170	21
171	7
173	2
174	0
188	740
189	103
190	9
