Mass Spectrum: Perhydro-htx-N,8-carboxy lactone, 2-depentyl-
Formula: C15H25NO2
CAS: 85506-02-1
Molecular weight: 251
m/z	intensity
41	540
42	95
43	183
44	25
45	9
47	2
48	0
49	6
50	2
51	12
52	13
53	96
54	111
55	302
56	103
57	39
58	5
59	9
60	0
62	2
63	3
64	1
65	46
66	27
67	164
68	50
69	54
70	29
71	8
72	2
73	1
74	4
75	0
77	84
78	22
79	138
80	83
81	87
82	105
83	26
84	32
85	5
86	4
87	1
88	3
89	1
91	95
92	21
93	76
94	80
95	62
96	52
97	999
98	74
99	3
100	11
101	1
102	4
103	6
104	5
105	32
106	39
107	48
108	111
109	41
110	147
111	38
112	8
113	9
114	6
115	5
116	2
117	10
118	8
119	22
120	63
121	49
122	228
123	150
124	68
125	9
126	5
127	5
128	11
129	3
130	3
131	6
132	5
133	27
134	80
136	428
137	286
138	45
139	23
140	14
141	24
142	17
143	2
144	2
145	1
146	6
148	72
150	267
152	798
153	68
154	17
155	15
156	18
157	2
158	1
159	0
160	3
162	30
164	927
165	253
166	52
167	42
168	16
169	21
170	3
172	0
173	1
174	1
175	0
176	12
178	395
179	56
180	42
181	12
182	14
183	3
184	0
186	0
187	6
188	1
190	38
192	62
194	304
195	165
196	21
197	2
198	1
200	0
202	0
204	5
206	88
208	915
209	155
210	20
211	3
212	0
214	0
218	1
220	0
222	34
223	12
224	16
225	3
226	2
232	4
233	1
234	5
235	0
236	5
237	1
238	0
239	1
240	1
242	0
248	0
249	2
251	796
252	293
253	42
254	4
