Mass Spectrum: Phenylpropionylglycine, TMS derivative
Formula: C14H21NO3Si
CAS: 85538-32-5
Molecular weight: 279
m/z	intensity
73	999
75	680
91	370
104	580
105	250
117	140
131	200
133	160
147	180
148	240
189	180
264	50
265	8
279	100
280	13
281	3
