Mass Spectrum: (2S,4S)-2,4-Dimethyloctanedioic acid dimethyl ester
Formula: C12H22O4
CAS: 85547-37-1
Molecular weight: 230
m/z	intensity
28	260
32	230
41	650
55	680
57	290
59	520
69	999
73	190
74	320
83	350
88	900
97	480
101	100
111	390
125	130
139	290
143	350
151	230
157	160
166	190
171	230
182	100
199	60
