Mass Spectrum: (2S,4S)-2,4-Dimethyldecanedioic acid dimethyl ester
Formula: C14H26O4
CAS: 85547-47-3
Molecular weight: 258
m/z	intensity
29	140
41	420
43	220
55	530
59	240
69	440
73	110
74	110
83	220
88	999
97	250
101	170
111	100
112	100
125	100
126	180
129	100
139	330
167	100
171	430
199	140
227	100
