Mass Spectrum: 3-Hydroxy-2-methylglutaric acid dimethyl ester
Formula: C8H14O5
CAS: 85547-41-7
Molecular weight: 190
m/z	intensity
29	999
32	300
55	290
56	710
57	480
59	570
61	500
71	900
74	360
81	140
85	860
87	290
88	520
89	240
103	810
113	480
117	710
130	380
141	860
159	70
