Mass Spectrum: 6,8-Dimethyl-non-4-enedioic acid, dimethyl ester
Formula: C13H22O4
CAS: 85547-52-0
Molecular weight: 242
m/z	intensity
26	10
27	157
28	44
29	179
30	11
31	28
33	9
36	4
37	4
38	9
39	213
40	54
41	536
42	83
43	147
44	12
45	59
46	4
50	11
51	38
52	27
53	211
54	52
55	346
56	58
57	197
58	13
59	299
60	13
61	6
63	13
64	5
65	75
66	38
67	443
68	126
69	211
70	23
71	60
72	12
73	70
74	71
75	9
76	9
77	130
78	30
79	292
80	98
81	921
82	129
83	56
84	13
85	58
86	5
87	70
88	999
89	54
90	9
91	90
92	18
93	250
94	122
95	884
96	99
97	50
98	35
99	163
100	17
101	32
102	4
103	7
104	9
105	38
106	15
107	132
108	241
109	471
110	72
111	43
112	30
113	53
114	13
115	19
117	14
118	6
119	38
120	9
121	38
122	96
123	398
124	65
125	21
126	15
127	15
128	10
129	27
130	9
131	11
132	16
133	77
134	13
135	92
136	149
137	79
138	10
139	32
140	33
141	58
142	15
143	7
144	5
145	12
147	6
149	38
150	206
151	253
152	31
153	17
154	119
155	430
156	47
157	12
158	14
159	6
160	10
161	25
162	6
163	49
164	11
165	5
166	4
167	12
168	163
169	36
170	6
171	11
173	5
177	6
178	640
179	516
180	64
181	13
182	100
183	21
184	5
185	12
186	20
190	5
192	11
193	4
195	13
196	4
198	4
199	8
200	4
210	196
211	56
212	9
213	9
214	20
227	4
242	34
243	8
