Mass Spectrum: 2-(6'-Methoxycarbonyl-5'-methyl-2'-tetrahydropyranyl)propionic acid methyl ester
Formula: C12H20O5
CAS: 85547-38-2
Molecular weight: 244
m/z	intensity
29	900
41	970
43	260
55	999
59	650
69	980
82	390
85	260
88	260
97	520
101	650
107	290
112	230
114	130
125	580
129	610
144	260
153	450
157	130
166	100
185	260
194	60
212	130
244	10
