Mass Spectrum: 2-Furancarboxylic acid, tetrahydro-3-methyl-5-oxo-, methyl ester
Formula: C7H10O4
CAS: 85547-53-1
Molecular weight: 158
m/z	intensity
26	10
27	108
28	19
29	63
30	4
31	14
33	14
37	4
38	11
39	85
40	20
41	181
42	127
43	440
44	19
45	7
51	6
53	17
54	6
55	41
56	5
57	6
58	4
59	51
60	2
61	8
68	5
69	23
70	11
71	360
72	19
81	4
83	4
89	22
98	15
99	999
100	71
101	7
102	2
158	34
159	4
