Mass Spectrum: (2R,4S)-2,4-Dimethyladipic acid dimethyl ester
Formula: C10H18O4
CAS: 85547-49-5
Molecular weight: 202
m/z	intensity
27	210
29	360
41	750
43	999
55	680
57	570
59	390
69	750
83	430
85	250
88	320
97	140
99	290
112	210
130	180
142	140
143	110
171	50
