Mass Spectrum: (2S,4S)-2,4-Dimethylundecanedioic acid dimethyl ester
Formula: C15H28O4
CAS: 85547-48-4
Molecular weight: 272
m/z	intensity
29	150
41	350
43	190
55	440
57	130
59	250
69	480
73	130
74	150
83	210
87	150
88	999
97	270
98	130
101	190
111	130
112	150
126	270
129	130
153	190
185	250
213	130
241	40
