Mass Spectrum: (2S,4S)-2,4-Dimethylnonanedioic acid dimethyl ester
Formula: C13H24O4
CAS: 85547-46-2
Molecular weight: 244
m/z	intensity
29	120
41	330
43	160
55	480
57	140
59	310
69	480
73	130
74	120
83	330
85	120
87	160
88	999
97	280
101	180
111	180
112	120
125	380
129	110
153	150
157	330
180	250
185	170
213	70
