Mass Spectrum: 4,4,5,6-Tetramethyl-3,4-dihydro-2H-1,3-thiazin-2-thione
Formula: C8H13NS2
CAS: 85556-66-7
Molecular weight: 187
m/z	intensity
38	17
39	350
40	59
41	590
42	330
43	160
44	67
45	20
46	5
47	4
50	28
51	97
52	49
53	320
54	40
55	300
56	39
57	97
58	99
59	999
60	100
61	58
62	14
63	24
64	14
65	91
66	27
67	250
68	23
69	68
70	22
71	88
72	24
73	30
74	24
75	13
76	7
77	290
78	45
79	410
80	59
81	95
82	14
83	23
84	27
85	73
86	19
87	15
88	8
91	110
92	20
93	220
94	64
95	90
96	47
97	130
98	69
99	55
100	32
101	15
102	9
103	4
104	8
105	13
106	6
107	6
108	13
109	9
110	22
111	140
112	110
113	710
114	54
115	39
116	8
117	5
118	4
119	9
120	12
121	8
122	10
123	12
124	6
125	42
126	38
127	810
128	700
129	120
130	36
131	15
138	150
139	60
140	24
141	10
154	9
155	15
156	7
157	8
172	820
173	90
174	70
175	8
176	5
187	770
188	93
189	72
190	7
191	2
