Mass Spectrum: 2-Methyl-1,3-butanediol, TBDMS derivative
Formula: C11H26O2Si
CAS: 85576-59-6
Molecular weight: 218
m/z	intensity
26	6
27	61
28	4
29	71
30	2
31	102
33	30
38	5
39	56
40	9
41	158
42	58
43	92
44	10
45	72
46	4
47	60
48	2
51	4
53	10
54	2
55	28
56	25
57	41
58	33
59	81
60	14
61	35
62	2
67	5
68	3
69	107
70	9
71	14
72	6
73	275
74	37
75	999
76	79
77	58
83	6
84	2
85	15
86	5
87	18
88	2
89	15
91	4
93	11
99	10
100	4
101	16
102	10
103	34
104	4
105	52
106	4
115	53
116	6
117	14
118	3
119	215
120	23
121	10
129	3
131	3
132	5
133	3
143	21
144	2
145	8
147	3
159	107
160	15
161	164
162	21
163	7
187	4
203	4
