Mass Spectrum: 2-Methylbutanoic acid, 3-t-butyldimethylsilyloxy-, ethyl ester
Formula: C13H28O3Si
CAS: 85576-58-5
Molecular weight: 260
m/z	intensity
26	3
27	22
28	19
29	59
30	1
31	5
35	1
36	9
38	2
39	13
40	2
41	39
42	4
43	27
44	8
45	32
46	1
47	35
48	2
49	1
50	1
51	3
53	4
54	2
55	28
56	14
57	26
58	22
59	67
60	9
61	22
62	1
63	1
65	3
67	3
68	1
69	7
70	3
71	5
72	5
73	503
74	38
75	999
76	50
77	33
78	1
79	1
81	3
82	1
83	9
84	2
85	11
86	4
87	11
88	2
89	4
91	1
93	1
95	2
96	1
97	3
98	1
99	17
100	4
101	18
102	9
103	436
104	26
105	19
106	2
107	1
109	1
111	1
112	1
113	5
114	1
115	145
116	17
117	19
118	1
119	387
120	27
121	11
122	1
123	1
127	1
128	1
129	14
130	5
131	33
132	3
133	2
142	2
143	1
144	4
145	1
147	54
148	6
149	7
150	1
151	1
155	2
157	10
158	1
159	129
160	17
161	18
162	2
171	4
173	2
175	196
176	23
177	8
178	1
181	1
186	1
187	1
189	6
190	1
199	1
201	3
202	1
203	358
204	42
205	13
206	2
215	3
216	1
217	3
245	10
246	1
259	1
