Mass Spectrum: Propanoic acid, 2-methyl-, 1,7,7-trimethylbicyclo[2.2.1]hept-2-yl ester, exo-
Formula: C14H24O2
CAS: 85586-67-0
Molecular weight: 224
m/z	intensity
27	53
28	12
29	33
30	1
39	95
40	20
41	390
42	43
43	999
44	38
45	9
51	18
52	9
53	95
54	15
55	204
56	19
57	50
58	4
59	10
63	5
64	3
65	47
66	16
67	213
68	87
69	269
70	44
71	855
72	47
77	95
78	22
79	138
80	183
81	239
82	47
83	66
84	13
89	5
91	102
92	154
93	536
94	92
95	834
96	62
97	26
98	4
104	4
105	45
106	10
107	124
108	412
109	500
110	163
111	48
112	4
113	4
114	2
115	11
117	5
119	55
120	17
121	471
122	46
125	10
133	6
134	9
135	43
136	450
137	129
139	6
141	3
142	3
152	6
153	18
154	74
155	12
176	4
177	2
181	7
182	1
209	1
224	58
225	9
226	1
