Mass Spectrum: 4-Hydroxy-5,5-dimethyl-3-phenyl-1-(3-phenylureido)imidazolidin-2-one
Formula: C18H20N4O3
CAS: 85601-66-7
Molecular weight: 340
m/z	intensity
29	129
38	107
39	293
41	264
42	213
43	206
44	94
50	76
51	174
52	75
55	298
56	252
57	294
58	173
63	136
64	237
65	292
66	297
67	78
69	94
71	123
72	289
73	591
77	492
84	202
86	95
87	649
91	391
92	226
93	999
94	171
118	101
119	525
120	175
121	247
122	252
187	164
203	128
206	324
221	985
222	131
229	8
230	9
236	4
247	8
248	4
322	26
323	21
324	5
340	51
341	11
