Mass Spectrum: 4-Hydroxylamino-5,5-dimethyl-3-phenyl-1-(3-phenylureido)imidazolidin-2-one
Formula: C18H21N5O3
CAS: 85601-76-9
Molecular weight: 355
m/z	intensity
29	333
30	242
31	138
37	140
38	326
39	828
40	183
41	619
42	362
43	358
44	153
45	69
50	235
51	404
52	201
53	118
54	132
55	498
56	376
57	499
58	160
60	85
62	102
63	335
64	629
65	486
66	444
67	151
68	180
69	227
70	182
71	328
72	348
73	121
77	619
78	198
81	125
83	128
84	327
85	786
86	133
87	211
91	906
92	349
93	949
94	182
95	128
97	92
102	97
104	116
109	75
118	98
119	999
120	268
121	150
144	73
151	104
187	316
191	72
203	219
204	432
205	80
218	161
236	73
323	179
324	42
355	23
