Mass Spectrum: (2S,4S)-2,4-Dimethylheptanedioic acid dimethyl ester
Formula: C11H20O4
CAS: 85611-45-6
Molecular weight: 216
m/z	intensity
29	510
32	380
41	740
55	999
59	490
69	590
73	230
74	180
81	180
83	440
88	790
97	460
101	150
125	210
129	440
141	100
156	100
157	130
185	100
