Mass Spectrum: Nordihydromorphinone, N-formyl-3-benzyl-
Formula: C24H23NO4
CAS: 85618-67-3
Molecular weight: 389
m/z	intensity
41	8
49	6
51	6
55	22
65	68
72	61
77	29
84	6
89	24
90	7
91	999
92	81
105	33
115	34
128	24
141	6
146	31
197	7
198	7
227	28
270	103
271	14
280	6
317	28
389	227
390	63
