Mass Spectrum: (2Z,4Z,6E)-2,4,6-Undecatriene
Formula: C11H18
CAS: 85615-64-1
Molecular weight: 150
m/z	intensity
39	237
40	36
41	310
44	6
53	14
55	18
65	38
67	31
77	291
78	8
79	999
80	38
91	503
92	30
93	553
94	70
105	3
107	188
150	337
