Mass Spectrum: Mitozolomide
Formula: C7H7ClN6O2
CAS: 85622-95-3
Molecular weight: 242
m/z	intensity
42	442
43	118
44	999
45	43
46	0
47	33
48	36
49	199
50	25
51	76
52	48
53	225
54	392
55	162
56	954
57	33
58	19
59	67
60	6
61	19
62	20
63	110
64	41
65	219
66	594
67	123
68	74
69	154
70	33
71	21
72	1
73	6
74	4
75	3
76	14
77	106
78	13
79	39
80	14
81	91
82	39
83	14
84	15
85	3
86	8
88	94
89	4
90	0
91	2
92	5
93	26
94	172
95	68
96	8
97	5
98	7
99	0
102	0
103	0
104	9
105	90
106	20
107	32
108	25
109	26
110	20
111	46
112	7
119	2
120	13
121	20
122	13
123	9
124	5
125	4
126	2
127	0
135	10
136	11
137	552
138	100
139	10
140	2
141	0
148	0
149	2
150	2
151	0
152	17
153	2
154	2
158	0
164	5
165	1
167	14
168	9
169	0
175	2
180	1
184	90
185	10
186	0
187	2
193	605
194	46
195	5
196	3
197	0
210	2
218	1
226	1
242	111
243	35
244	37
245	11
246	1
