Mass Spectrum: l-Proline, 1-[1-[1-[(1,1-dimethylethoxy)carbonyl]-l-prolyl]-d-prolyl]-, methyl ester
Formula: C21H33N3O6
CAS: 85635-60-5
Molecular weight: 423
m/z	intensity
26	12
27	84
28	65
29	103
30	11
31	62
37	4
38	11
39	93
40	17
41	217
42	64
43	691
44	24
45	45
50	16
51	43
52	15
53	28
54	16
55	101
56	74
57	281
58	91
59	247
60	21
61	28
62	6
63	19
65	34
66	7
67	23
68	65
69	84
70	999
71	99
73	13
77	43
78	21
79	32
81	23
82	32
83	53
84	22
85	27
88	7
89	8
91	229
92	34
93	6
95	15
96	40
97	31
98	49
99	16
101	74
102	8
103	20
104	11
105	130
106	108
107	11
109	8
110	15
111	16
112	58
113	14
114	258
115	22
117	7
119	20
120	35
121	6
123	6
124	19
125	11
126	18
127	6
128	63
129	8
130	17
131	12
134	6
138	9
139	7
140	31
141	8
142	32
143	4
153	15
154	38
156	7
157	18
163	8
164	5
166	21
167	9
168	15
169	9
170	28
171	16
177	3
182	4
184	32
185	8
193	16
194	25
195	9
198	20
199	10
211	19
212	3
222	9
225	16
226	10
227	8
238	5
239	15
240	3
253	34
254	24
255	11
267	6
281	6
294	5
295	10
306	2
322	14
323	17
324	5
336	4
350	19
351	4
367	5
423	11
424	3
