Mass Spectrum: 1-Methoxy-1-(4-methoxyphenyl)-N-methylpropan-2-amine
Formula: C12H19NO2
CAS: 856343-06-1
Molecular weight: 209
m/z	intensity
15	3
27	3
28	8
29	7
30	21
31	1
32	1
38	1
39	9
40	1
41	5
42	17
43	9
44	4
45	1
50	4
51	13
52	3
53	3
54	2
55	3
56	27
57	10
58	999
59	38
60	1
62	2
63	8
64	6
65	13
66	2
67	1
68	1
70	1
71	1
72	1
74	1
75	2
76	3
77	29
78	13
79	8
80	2
81	2
89	5
90	2
91	15
92	9
93	3
94	2
102	2
103	5
104	3
105	6
106	1
107	8
108	10
109	2
115	4
116	2
117	4
118	3
119	3
120	2
121	14
122	2
123	1
130	1
131	3
132	3
133	3
134	2
135	64
136	21
137	4
144	1
145	1
146	4
147	7
148	13
149	2
151	68
152	7
153	1
160	1
161	2
162	6
163	3
164	1
176	4
177	2
178	5
179	1
209	1
