Mass Spectrum: 2-Butyl-3-(4-.beta.-diethylaminoethoxy-3-iodobenzoyl)benzofuran
Formula: C25H30INO3
CAS: 85642-08-6
Molecular weight: 519
m/z	intensity
42	56
44	98
56	106
57	35
58	157
70	55
71	67
72	28
84	65
86	999
99	43
100	58
121	3
128	3
131	8
145	2
147	8
159	18
171	9
178	2
201	28
205	8
221	6
222	2
234	8
238	8
247	6
248	5
263	4
264	3
276	1
277	3
290	0
291	1
320	1
321	0
334	0
335	0
347	0
348	1
362	3
363	1
376	2
377	1
390	1
392	2
420	0
504	1
518	0
519	0
