Mass Spectrum: 2-Stilbazole, 4'-hydroxydihydro-
Formula: C13H13NO
CAS: 85666-07-5
Molecular weight: 199
m/z	intensity
39	120
51	100
52	100
53	70
55	40
57	30
63	30
65	130
77	210
78	120
79	220
80	60
91	30
92	70
93	920
94	110
106	330
107	999
108	60
167	30
168	30
183	70
184	40
196	80
197	40
198	470
199	690
200	100
