Mass Spectrum: Dipropyl oxydiacetate
Formula: C10H18O5
CAS: 85668-79-7
Molecular weight: 218
m/z	intensity
14	3
15	11
16	1
18	0
26	5
27	133
28	26
29	47
30	5
31	129
32	2
36	1
37	2
38	2
39	39
40	9
41	243
42	159
43	764
44	82
45	34
46	1
49	1
55	24
56	8
57	58
58	12
59	33
60	353
61	965
62	26
63	9
69	1
71	4
72	6
73	52
74	3
75	5
76	1
77	5
85	2
87	17
88	40
89	999
90	37
91	15
92	3
100	3
101	1
102	227
103	22
104	2
105	1
115	1
116	241
117	31
118	5
119	1
129	1
130	9
131	235
132	16
133	3
134	13
135	9
145	2
158	44
159	33
160	4
176	7
177	3
218	1
219	1
