Mass Spectrum: 3,9,10-Tribromo-(+)-camphor
Formula: C10H13Br3O
CAS: 85706-52-1
Molecular weight: 386
m/z	intensity
15	8
17	4
18	5
19	6
26	13
27	204
28	60
29	246
30	10
31	212
32	4
35	34
36	199
37	12
38	77
39	171
40	32
41	697
42	181
43	252
44	119
45	35
49	3
51	11
52	5
53	64
54	126
55	999
56	198
57	205
58	12
59	1
63	9
65	14
66	11
67	234
68	214
69	672
70	132
71	36
72	11
73	13
77	9
79	25
80	5
81	189
82	149
83	327
84	28
85	6
90	8
91	34
92	1
93	24
94	2
95	110
96	39
97	415
98	29
99	1
104	51
105	6
106	18
107	32
109	37
111	2
113	6
118	13
119	3
120	10
121	10
122	6
123	24
124	3
132	21
134	49
135	182
136	37
137	185
138	6
148	108
149	6
150	108
151	7
162	55
163	1
164	55
174	3
176	43
177	2
178	39
179	4
