Mass Spectrum: Oxirane, (7-octenyl)-
Formula: C10H18O
CAS: 85721-25-1
Molecular weight: 154
m/z	intensity
14	2
15	27
17	1
26	14
27	296
28	74
29	370
30	11
31	142
32	2
33	1
37	3
38	12
39	454
40	76
41	899
42	183
43	268
44	42
45	78
46	2
50	10
51	30
52	17
53	213
54	942
55	999
56	163
57	292
58	217
59	31
60	1
62	2
63	6
64	1
65	40
66	72
67	997
68	704
69	347
70	158
71	436
72	43
73	4
74	1
75	1
77	45
78	19
79	452
80	254
81	845
82	287
83	422
84	89
85	72
86	8
87	1
91	33
92	6
93	247
94	144
95	344
96	82
97	176
98	59
99	16
100	2
105	5
106	1
107	141
108	72
109	33
110	26
111	80
112	17
113	5
119	1
121	69
122	8
123	51
124	5
125	11
126	2
135	3
136	4
137	1
139	1
153	7
154	1
