Mass Spectrum: N-Benzyl-2,4-dimethoxyaniline
Formula: C15H17NO2
CAS: 85775-69-5
Molecular weight: 243
m/z	intensity
41	61
42	16
43	10
44	2
45	5
50	35
51	122
52	116
53	56
54	14
55	15
56	3
57	5
58	3
59	13
61	2
62	15
63	72
64	35
65	251
66	40
67	23
68	23
69	40
70	5
71	5
74	4
75	7
76	14
77	73
78	57
79	94
80	49
81	23
82	10
84	13
85	1
86	1
87	2
88	2
89	43
91	999
92	169
93	149
94	30
95	69
96	5
97	4
98	1
99	0
101	1
102	4
103	4
104	19
105	10
106	24
107	54
108	45
109	92
110	26
111	2
113	2
114	3
115	10
116	4
117	3
118	1
119	2
120	6
121	8
122	119
123	37
124	149
125	33
126	3
127	4
128	8
129	5
130	2
133	1
134	8
135	6
136	20
137	5
138	13
139	8
140	4
141	4
142	2
143	1
148	0
149	1
150	45
152	418
153	52
154	11
155	3
156	4
157	2
163	0
164	5
166	29
167	15
168	7
169	2
170	1
178	0
180	3
181	1
182	4
183	4
184	8
185	1
195	3
196	5
197	1
198	1
210	10
211	5
212	5
213	2
227	18
228	134
229	18
230	2
241	4
242	21
243	986
244	178
245	18
246	0
