Mass Spectrum: 1,3,5-Triazine, 2,4,6-tris(pentafluoroethyl)-
Formula: C9F15N3
CAS: 858-46-8
Molecular weight: 435
m/z	intensity
25	1
27	4
29	5
31	95
38	4
39	3
40	1
41	9
42	4
43	21
44	37
45	2
50	79
51	4
52	4
53	2
54	1
55	5
56	7
57	18
58	2
62	2
63	1
64	2
65	1
66	2
67	1
68	1
69	816
70	9
71	3
76	999
77	26
78	10
79	1
81	12
82	1
83	5
84	1
85	2
88	12
89	2
91	2
93	4
95	3
96	2
97	2
98	1
99	1
100	109
101	3
102	97
103	4
107	21
108	1
109	1
114	11
115	1
116	2
119	588
120	11
121	2
126	184
127	7
133	10
134	1
138	5
139	1
140	1
141	2
142	1
145	6
149	9
152	33
153	2
162	2
164	2
171	221
172	12
173	7
178	27
179	2
195	2
198	3
202	9
221	12
228	3
271	48
272	4
290	7
297	5
298	2
316	2
347	11
348	2
366	766
367	73
368	3
416	302
417	33
418	2
435	166
436	18
