Mass Spectrum: Allyl alcohol, TBDMS derivative
Formula: C9H20OSi
CAS: 85807-85-8
Molecular weight: 172
m/z	intensity
15	2
26	2
27	13
28	4
29	29
30	1
31	5
37	1
38	3
39	56
40	7
41	107
42	13
43	42
44	7
45	78
46	5
47	43
48	2
49	1
50	1
51	2
52	1
53	8
54	3
55	24
56	8
57	48
58	37
59	332
60	35
61	66
62	4
63	2
66	1
67	3
68	1
69	4
70	2
71	12
72	5
73	131
74	19
75	168
76	13
77	6
81	1
83	8
85	464
86	50
87	115
88	13
89	14
90	1
95	1
97	14
99	137
100	20
101	41
102	4
103	1
111	3
113	20
115	999
116	222
117	87
118	5
119	1
127	2
129	6
130	2
131	2
147	1
157	26
158	4
159	1
171	1
172	27
173	4
174	1
