Mass Spectrum: 4,4'-Dichloro-5,5'-bis[1-pyrrolidinylmethyl]-1,1'3,3'-quaterphenyl-4,4'-diol
Formula: C34H34Cl2N2O2
CAS: 85842-02-0
Molecular weight: 572
m/z	intensity
41	225
42	274
43	999
44	41
47	26
48	11
49	195
51	74
54	13
55	39
56	15
57	12
67	24
68	92
69	41
70	835
71	559
72	42
82	9
83	49
84	356
85	13
86	250
88	46
152	35
181	59
215	39
217	18
286	44
287	62
289	22
321	9
361	17
395	118
396	32
397	61
398	8
432	35
433	9
434	23
501	185
502	65
503	139
504	51
505	31
572	56
573	22
574	42
575	15
576	8
