Mass Spectrum: 4-Bromo-2,5-dimethoxy-N,N-bis[2-diethylaminoethyl]aniline
Formula: C20H36BrN3O2
CAS: 85867-96-5
Molecular weight: 429
m/z	intensity
42	124
44	181
45	25
46	2
47	5
49	52
51	105
52	80
53	66
54	28
55	2
56	116
58	123
59	3
60	0
61	9
62	11
63	31
64	4
65	9
66	9
67	0
69	66
70	25
71	2
72	73
73	4
74	1
75	1
77	12
79	1
80	12
81	1
82	0
84	54
86	999
87	2
88	0
90	3
91	4
92	3
93	2
95	55
96	5
98	24
100	664
101	36
102	1
104	1
105	3
108	19
109	1
110	0
112	1
113	1
116	0
118	2
119	2
120	2
121	1
122	2
123	0
125	3
127	0
129	0
130	1
132	1
133	2
134	4
136	34
137	4
138	0
143	0
145	1
147	3
148	3
149	2
150	2
151	0
154	25
155	2
156	0
157	1
158	1
159	0
160	0
162	4
163	3
164	3
165	0
166	0
169	0
171	1
172	1
174	1
175	1
176	1
178	4
179	0
180	1
184	2
186	1
187	1
188	1
189	0
190	0
192	9
193	7
194	4
199	2
200	2
201	2
202	2
203	0
204	0
205	0
206	0
208	1
212	4
214	3
215	3
216	2
217	1
228	9
229	6
230	5
231	4
232	0
234	0
235	0
241	5
242	6
243	9
244	10
245	5
246	4
247	0
252	2
253	0
254	0
255	0
257	10
258	7
259	7
260	5
261	0
263	8
264	1
265	2
266	0
268	0
270	1
272	93
274	112
275	11
276	0
278	0
279	0
282	0
283	1
285	4
286	1
287	2
288	1
297	0
298	0
299	0
300	0
313	2
314	0
315	2
316	0
317	0
327	1
328	1
330	88
331	1
332	91
333	12
334	1
341	1
343	79
344	2
345	96
346	13
347	1
356	20
357	0
358	23
359	3
428	0
429	2
430	0
431	2
432	0
