Mass Spectrum: 2,4-Di[4-diethylamino-1-methylbutylamino]-1,5-naphthyridine
Formula: C26H46N6
CAS: 85867-98-7
Molecular weight: 442
m/z	intensity
41	116
42	107
43	45
44	80
45	3
46	4
47	2
49	11
50	0
51	7
52	3
53	8
54	10
55	23
56	93
57	27
58	224
59	9
60	0
63	1
64	1
65	3
67	16
68	10
69	62
70	38
71	42
72	59
73	21
74	9
76	3
77	3
78	5
79	9
80	3
82	13
83	2
84	54
86	999
87	58
88	1
89	1
90	3
91	3
92	1
93	3
94	1
95	1
96	8
97	1
98	31
99	43
100	8
102	3
103	6
104	5
105	4
106	3
107	3
108	1
110	6
111	4
112	44
113	9
114	13
115	0
116	6
117	19
118	6
119	4
120	4
124	3
126	17
127	1
128	1
129	14
130	9
131	5
132	3
133	2
134	1
136	1
138	0
139	7
140	9
142	30
143	3
144	40
145	19
146	10
147	1
149	1
151	2
153	0
154	0
155	3
156	5
157	7
158	5
159	8
160	16
161	23
162	3
163	2
164	1
168	3
169	6
170	21
171	20
172	15
173	11
174	3
177	3
178	1
181	0
182	3
183	4
185	53
186	18
187	63
188	17
189	4
195	1
196	3
197	9
198	8
199	26
200	8
201	14
202	4
203	0
209	1
210	2
211	11
212	13
213	28
214	18
215	14
216	3
223	2
224	1
225	10
226	5
227	37
228	20
229	37
230	15
231	4
232	1
237	1
239	7
240	1
241	14
242	4
243	4
251	2
252	1
253	12
254	9
255	31
256	12
257	9
258	4
259	2
267	5
268	1
269	14
270	20
271	7
272	18
273	3
279	1
281	4
282	0
283	7
284	4
285	4
286	0
288	1
293	4
295	49
296	64
297	60
298	30
299	6
300	13
301	3
302	3
303	1
312	4
314	6
326	1
328	19
329	5
330	0
337	0
338	3
339	1
340	21
341	2
342	28
343	5
354	0
356	12
357	3
367	1
368	69
369	53
370	14
371	7
372	2
385	2
413	76
414	19
415	2
441	1
442	14
443	4
444	0
