Mass Spectrum: 1,3,5,7,9,11-Hexahydroxy-2-methylundecane
Formula: C12H26O6
CAS: 85888-01-3
Molecular weight: 266
m/z	intensity
31	320
41	540
43	820
45	550
55	730
57	730
69	500
71	820
73	450
75	720
81	640
83	550
89	550
97	230
99	590
101	999
115	900
125	230
127	720
141	500
145	90
153	360
171	360
185	130
194	20
195	20
212	20
213	20
231	20
249	20
267	80
