Mass Spectrum: 2,4,6-Trimethyldecane-1,3,10-triol
Formula: C13H28O3
CAS: 85887-96-3
Molecular weight: 232
m/z	intensity
41	320
43	430
55	620
69	450
71	400
81	190
83	290
89	999
95	180
97	290
99	150
109	50
111	80
115	50
137	390
143	20
155	110
173	140
214	20
233	5
