Mass Spectrum: Octanedioic acid, 2,4-dimethyl-, dimethyl ester
Formula: C12H22O4
CAS: 85888-13-7
Molecular weight: 230
m/z	intensity
38	2
39	67
40	362
41	336
42	91
43	256
44	140
45	58
46	1
47	2
48	3
50	2
51	3
52	3
53	35
54	11
55	438
56	102
57	221
58	12
59	290
60	11
61	10
64	1
65	5
66	2
67	66
68	32
69	672
70	69
71	27
72	5
73	121
74	157
75	11
77	7
78	3
79	18
80	7
81	89
82	45
83	250
84	33
85	26
86	2
87	152
88	999
89	47
90	4
91	6
92	1
93	24
94	7
95	72
96	49
97	420
98	61
99	17
100	6
101	165
102	15
103	3
105	3
106	3
107	13
108	2
109	21
110	49
111	447
112	47
113	11
114	3
115	4
118	6
119	40
120	6
121	34
122	7
123	40
124	23
125	148
126	15
127	31
128	46
129	91
130	17
131	16
133	2
137	11
138	39
139	199
140	21
141	6
142	14
143	381
144	34
145	2
147	3
148	1
149	8
150	1
151	161
152	17
153	2
154	1
155	21
156	15
157	79
158	7
159	1
160	18
163	0
165	12
166	149
167	21
168	3
169	5
170	23
171	168
172	17
173	1
180	5
181	3
183	86
184	11
185	1
187	1
191	0
197	1
198	18
199	57
