Mass Spectrum: Benzonitrile, 2-fluoro-4-(4-pentylcyclohexyl)-
Formula: C18H24FN
CAS: 85896-79-3
Molecular weight: 273
m/z	intensity
27	370
28	169
29	638
39	315
41	999
42	158
43	435
44	30
51	32
52	32
53	139
54	236
55	883
56	209
57	172
65	44
67	339
68	125
69	315
70	346
71	128
75	31
77	44
79	86
81	458
82	277
83	190
84	69
94	71
95	154
96	526
97	213
98	68
101	33
107	142
108	69
109	87
110	53
111	102
120	98
121	137
122	114
124	48
125	75
126	148
127	80
128	57
134	995
135	232
136	39
140	95
145	67
147	910
148	922
149	201
150	547
151	90
152	60
158	150
160	711
161	321
162	118
163	70
171	47
172	75
173	69
174	97
175	56
176	81
185	52
186	87
188	54
200	47
201	56
202	231
203	61
216	44
217	70
230	36
231	27
244	28
245	116
246	20
273	349
274	79
