Mass Spectrum: 2-Propenoic acid, 3-phenylpropyl ester
Formula: C12H14O2
CAS: 85909-41-7
Molecular weight: 190
m/z	intensity
36	20
38	11
39	79
40	9
41	50
43	18
44	38
50	21
51	55
52	15
53	11
55	343
56	16
62	10
63	45
65	81
69	12
71	29
72	11
73	11
77	79
78	50
79	39
89	18
90	9
91	396
92	48
93	11
102	9
103	51
104	59
105	103
106	12
115	38
116	79
117	621
118	999
119	105
