Mass Spectrum: (-)-3,4-Di-O-methyl-2-deoxy-D-ribono-1,5-lactone
Formula: C7H12O4
CAS: 85921-57-9
Molecular weight: 160
m/z	intensity
29	750
30	190
31	270
39	250
42	310
43	800
45	690
55	300
58	999
59	240
83	320
98	380
101	250
129	190
130	100
