Mass Spectrum: Cyclic ester of bis-benzene-1,2-diol bis-pentanedioate
Formula: C22H20O8
CAS: 85933-06-8
Molecular weight: 412
m/z	intensity
41	309
42	279
52	153
55	939
63	114
69	205
71	46
80	109
81	68
92	103
94	49
95	54
96	13
97	503
98	33
109	53
110	999
111	109
121	33
123	67
124	14
125	46
137	92
139	77
147	146
148	22
151	155
152	23
165	521
166	55
167	45
178	44
179	46
193	774
194	92
195	25
206	110
207	340
208	50
233	34
261	31
275	92
285	117
286	22
303	969
304	148
305	38
412	371
413	82
414	11
