Mass Spectrum: Dimethyl 3-sulfinopropionate
Formula: C5H10O4S
CAS: 85939-98-6
Molecular weight: 166
m/z	intensity
41	91
42	192
43	313
44	67
45	470
46	53
47	104
48	152
52	18
53	26
55	999
56	246
57	207
58	47
59	779
60	38
61	131
62	21
63	49
64	38
65	77
66	15
67	15
69	27
70	10
71	69
72	10
73	38
74	106
75	177
76	36
77	70
79	603
80	49
81	37
82	5
83	17
84	37
85	23
86	45
87	657
88	229
89	37
91	41
92	6
93	4
94	30
95	22
97	17
99	5
101	63
102	12
103	269
104	34
105	23
106	22
107	4
118	4
119	32
120	15
121	45
122	19
133	4
134	14
135	174
136	7
137	15
150	10
151	303
152	8
165	12
166	41
167	4
