Mass Spectrum: 4-(1-Methyl-1-chloroethyl)-2,2,5,5-tetramethyl-3-imidazoline-1-oxyl
Formula: C10H18ClN2O
CAS: 85979-84-6
Molecular weight: 217
m/z	intensity
32	367
39	108
40	32
41	283
42	160
43	47
44	69
51	13
52	13
53	57
54	38
55	114
56	24
57	14
58	58
59	23
65	21
66	12
67	108
68	184
69	169
70	59
77	41
78	9
79	36
80	28
81	28
82	48
83	123
84	28
86	8
89	27
91	27
92	80
93	39
94	36
95	139
96	60
97	28
98	21
99	16
103	14
104	3
105	5
106	5
107	10
108	31
109	87
110	999
111	144
112	10
119	4
120	80
121	20
122	20
123	7
125	13
126	40
127	12
130	58
131	53
132	18
133	17
134	18
135	16
136	133
137	28
138	13
145	82
146	6
147	27
149	10
150	23
151	111
152	559
153	88
154	5
164	3
165	5
166	11
167	58
168	9
172	22
174	9
187	549
188	67
189	175
190	22
200	7
202	78
203	43
204	25
205	14
217	54
218	20
219	19
220	13
