Mass Spectrum: 1-Butanamine, N-ethyl-N-propyl-
Formula: C9H21N
CAS: 85979-87-9
Molecular weight: 143
m/z	intensity
27	145
29	202
30	193
39	55
41	204
42	191
43	138
44	121
54	17
55	34
56	84
57	100
58	533
59	34
70	31
71	19
72	516
73	29
84	44
86	103
98	38
100	999
101	123
109	29
112	15
114	684
115	67
128	58
142	27
143	222
144	26
