Mass Spectrum: Verimol K
Formula: C14H12O4
CAS: 85985-75-7
Molecular weight: 244
m/z	intensity
39	33
50	9
51	35
52	21
63	24
65	97
77	21
79	24
81	18
89	16
90	11
91	999
92	74
107	39
108	24
136	10
244	68
245	9
