Mass Spectrum: N,N',N'',N'''-Tetrakis(trifluoroacetyl)arginine
Formula: C14H10F12N4O6
CAS: 85985-01-9
Molecular weight: 558
m/z	intensity
69	999
97	90
137	130
148	150
165	300
166	400
180	210
182	110
193	450
194	380
208	160
234	670
252	220
262	200
277	250
278	400
375	950
376	115
377	49
446	11
