Mass Spectrum: 4-Ethenylhexahydro-4,7a-dimethyl-2(3H)-benzofuranone,[3ar*-(3a .alpha.,4.beta.,7a .beta.)]-
Formula: C12H18O2
CAS: 86003-24-9
Molecular weight: 194
m/z	intensity
41	428
42	63
43	808
51	90
52	51
53	340
54	60
55	336
58	31
60	31
63	25
65	112
66	52
67	529
68	313
71	14
72	31
75	31
77	151
78	17
79	641
80	185
81	999
82	180
83	16
84	29
85	86
91	121
92	77
93	642
94	372
95	212
96	65
97	24
98	51
99	11
103	38
104	52
105	38
106	51
107	320
108	664
109	301
110	112
111	30
113	5
118	37
119	132
120	58
121	138
122	40
123	233
124	186
125	17
131	39
133	148
134	111
135	228
136	167
137	144
149	66
150	29
151	147
152	86
153	44
161	107
166	168
167	38
176	63
177	30
179	208
194	39
