Mass Spectrum: N-Phenethylidene-2-butylamine
Formula: C12H17N
CAS: 86013-70-9
Molecular weight: 175
m/z	intensity
33	1
37	3
38	10
39	111
40	3
41	270
42	40
43	6
44	8
45	1
50	19
51	70
52	23
53	13
54	21
55	44
56	26
57	999
58	47
59	1
60	1
61	1
62	7
63	32
64	10
65	87
66	32
67	3
68	14
70	2
72	5
73	16
74	7
75	6
76	8
77	69
78	23
79	10
80	3
82	4
84	516
85	28
86	1
87	2
89	20
90	17
91	285
92	209
93	19
97	11
98	2
101	2
102	12
103	41
104	30
105	33
106	4
115	4
116	6
117	31
118	58
119	23
120	12
121	1
127	3
128	8
129	28
130	25
131	19
132	3
143	2
144	14
145	3
146	212
147	24
148	2
160	31
161	4
174	5
175	66
176	6
177	1
