Mass Spectrum: Phosphonous dibromide, cyclohexyl-
Formula: C6H11Br2P
CAS: 86012-32-0
Molecular weight: 272
m/z	intensity
26	22
27	155
28	3
29	108
30	2
31	2
33	0
34	0
36	1
37	1
38	6
39	155
40	123
41	448
42	27
43	24
44	0
45	21
46	1
47	1
48	0
49	1
50	8
51	19
52	11
53	70
54	50
55	999
56	39
57	40
58	4
59	4
60	0
61	0
62	1
63	2
64	0
65	11
66	8
67	93
68	9
69	13
70	2
71	23
72	2
73	2
74	1
75	0
76	0
77	14
78	4
79	36
80	9
81	47
82	15
83	874
84	46
85	12
86	1
91	1
92	0
93	0
97	0
98	0
99	0
107	0
108	0
110	4
111	3
112	5
113	6
114	1
116	0
117	0
118	0
119	0
122	1
125	2
126	0
127	2
128	0
129	0
130	0
131	0
135	0
137	2
139	2
140	0
141	0
145	0
146	0
148	0
149	0
151	1
153	2
158	0
159	0
160	0
164	0
165	0
167	0
178	0
189	3
191	7
193	3
194	0
195	0
196	0
197	0
204	1
228	0
230	0
232	0
237	0
239	0
272	10
273	0
274	18
275	2
276	6
277	0
