Mass Spectrum: Pyrrolo[1,2-c]oxazol-1(3H)-one, tetrahydro 7a-acetyl-3-(1,1-dimethylethyl)-
Formula: C12H19NO3
CAS: 86046-29-9
Molecular weight: 225
m/z	intensity
26	5
27	42
28	25
29	52
30	19
31	3
38	1
39	53
40	12
41	128
42	31
43	110
44	360
50	2
51	7
52	7
53	28
54	30
55	63
56	13
57	37
58	3
59	3
63	2
64	1
65	9
66	7
67	37
68	36
69	41
70	50
71	9
77	10
78	3
79	13
80	23
81	21
82	17
83	8
84	5
85	4
86	5
91	7
92	3
93	8
94	50
95	21
96	117
97	21
98	5
105	5
106	4
107	3
108	7
109	4
110	4
111	4
112	13
114	4
122	14
123	15
124	999
125	87
126	8
138	18
140	5
166	27
167	6
168	4
180	5
181	67
182	25
183	7
