Mass Spectrum: 3-Oxa-1-azabicyclo[3.2.0]heptan-4-one, 2-(1,1-dimethylethyl)-, cis-(.+-.)-
Formula: C9H15NO2
CAS: 86046-39-1
Molecular weight: 169
m/z	intensity
26	15
27	121
28	144
29	98
30	36
38	11
39	122
40	22
41	198
42	51
43	26
44	66
45	5
50	4
51	8
52	6
53	16
54	39
55	108
56	240
57	115
58	6
67	9
68	68
69	78
70	21
71	5
80	3
81	2
82	46
83	8
84	999
85	70
86	8
91	5
94	3
95	2
96	2
97	6
98	16
107	2
108	5
110	22
111	3
112	286
113	18
114	3
125	37
126	42
127	3
141	1
154	3
169	46
170	4
