Mass Spectrum: 3-t-Butyl-7a-dimethylaminomethyltetrahydr-pyrrolo[1,2-c]oxazol-1-one
Formula: C13H24N2O2
CAS: 86046-14-2
Molecular weight: 240
m/z	intensity
27	11
29	36
30	20
39	19
40	5
41	98
42	59
43	18
44	9
45	2
51	1
52	1
53	7
54	8
55	18
56	8
57	33
58	999
59	40
65	1
66	2
67	7
68	27
69	9
70	8
71	2
72	1
77	1
79	1
80	4
81	2
82	20
83	11
84	9
85	1
86	1
91	0
93	1
94	4
95	3
96	29
97	9
98	3
99	1
100	1
106	0
107	1
108	2
109	3
110	3
111	6
112	2
114	4
120	1
121	0
122	2
123	5
124	9
125	7
126	1
127	7
128	1
134	1
135	0
136	8
137	2
138	2
139	12
140	2
149	1
150	1
152	3
153	1
154	1
165	0
166	1
167	1
168	1
181	3
182	6
183	1
196	5
197	0
240	9
241	1
