Mass Spectrum: cis,cis-4,6-Octadienol
Formula: C8H14O
CAS: 860473-40-1
Molecular weight: 126
m/z	intensity
20	1
25	9
26	46
27	392
28	6
29	283
30	24
31	187
32	0
36	12
37	48
38	54
39	547
40	120
41	821
42	94
43	118
44	0
45	59
46	7
47	2
48	5
49	18
50	60
51	138
52	82
53	441
54	96
55	448
56	57
57	75
58	76
59	12
60	8
61	5
62	10
63	32
64	9
65	147
66	128
67	628
68	175
69	62
70	110
71	44
72	1
73	9
75	7
77	445
78	76
79	750
80	144
81	397
82	192
83	92
84	47
89	4
90	2
91	331
92	34
93	999
94	73
95	130
96	16
97	56
98	76
99	5
103	3
105	13
106	12
107	38
108	95
109	10
111	6
112	1
122	1
123	2
124	3
125	1
126	289
127	19
