Mass Spectrum: Bicyclo[2.2.1]heptan-2-one, 3-(2-oxopropyl)-, exo-
Formula: C10H14O2
CAS: 86051-13-0
Molecular weight: 166
m/z	intensity
26	12
27	113
28	6
29	31
30	5
31	6
35	7
37	4
38	11
39	156
40	29
41	211
42	24
43	887
44	43
45	13
47	19
49	14
50	11
51	28
52	16
53	71
54	55
55	123
56	12
57	33
58	12
59	6
60	1
61	2
62	4
63	10
64	3
65	34
66	64
67	257
68	32
69	65
70	17
71	46
72	6
73	1
74	2
75	2
77	43
78	19
79	143
80	152
81	63
82	9
83	52
84	91
85	6
86	58
87	1
88	9
89	1
91	25
92	5
93	31
94	17
95	362
96	51
97	22
98	999
99	116
100	35
101	4
103	1
104	1
105	21
106	7
107	10
108	36
109	122
110	15
111	2
112	2
114	6
115	2
119	2
120	15
121	2
122	7
123	78
124	37
125	5
126	4
127	1
128	2
133	2
137	2
138	67
139	6
140	1
141	1
142	2
148	1
151	4
166	86
167	13
168	2
