Mass Spectrum: 7-Methylbicyclo[4.4.1]undeca-2,4,8-triene
Formula: C12H16
CAS: 86067-59-6
Molecular weight: 160
m/z	intensity
27	46
28	30
29	13
31	7
38	6
39	81
40	17
41	62
42	6
50	12
51	38
52	16
53	34
54	4
55	10
62	5
63	22
64	12
65	81
66	17
67	45
68	32
69	7
77	63
78	23
79	71
80	33
81	18
82	47
89	12
90	7
91	666
92	999
93	121
94	60
95	9
102	4
103	14
104	2
105	46
106	29
115	27
116	10
117	36
118	44
119	22
141	6
142	4
143	4
145	34
146	4
159	3
160	85
161	9
