Mass Spectrum: 8,9-Dimethylbicyclo[4.4.1]undeca-2,4,8-triene
Formula: C13H18
CAS: 86067-61-0
Molecular weight: 174
m/z	intensity
38	14
39	175
40	30
41	161
42	16
50	21
51	90
52	17
53	56
54	11
55	85
56	13
63	44
64	32
65	138
66	21
67	117
68	14
69	51
70	17
71	37
76	11
77	146
78	67
79	101
80	37
81	83
82	106
83	42
85	11
89	11
90	11
91	990
92	999
93	196
94	132
95	85
96	36
97	32
104	21
105	95
106	95
107	122
108	21
109	37
110	11
111	26
115	64
116	21
117	58
118	42
119	93
120	42
128	64
129	69
130	32
131	69
132	49
133	47
134	21
135	16
143	16
144	16
145	62
146	16
157	42
158	48
159	117
160	16
174	197
175	40
