Mass Spectrum: 4-Methyl-6-phenyltetrahydro-1,3-oxazine-2-thione
Formula: C11H13NOS
CAS: 86071-94-5
Molecular weight: 207
m/z	intensity
12	6
14	7
15	34
16	32
17	85
18	131
26	13
27	57
28	75
29	52
30	52
31	49
32	18
39	47
40	9
41	68
42	102
43	288
44	97
45	86
46	13
50	12
51	55
55	30
56	21
57	63
58	10
59	10
60	40
61	23
62	7
63	18
64	14
65	40
66	6
67	15
68	15
69	47
70	78
71	38
72	7
73	23
74	16
75	15
76	14
77	139
78	121
79	36
80	8
81	23
82	15
83	18
84	10
85	14
86	13
87	7
88	7
89	15
90	7
91	119
92	13
93	15
94	13
95	16
96	13
97	12
98	7
99	7
101	7
102	17
103	96
104	999
105	115
106	17
107	14
108	5
109	14
110	6
111	14
112	13
115	43
116	218
117	57
118	20
119	10
120	5
121	13
122	13
123	10
125	11
128	18
129	31
130	23
131	301
132	60
133	10
135	9
137	9
144	12
146	39
147	32
148	7
173	10
174	55
175	9
207	686
208	72
209	30
