Mass Spectrum: 4,6-Diphenyltetrahydro-1,3-oxazine-2-thione
Formula: C16H15NOS
CAS: 86071-96-7
Molecular weight: 269
m/z	intensity
26	6
27	40
28	1
29	19
30	8
31	13
34	4
38	4
39	44
40	5
41	26
42	47
43	40
44	35
45	113
46	6
47	2
50	19
51	104
52	37
53	9
54	5
55	17
56	18
57	10
58	6
59	6
60	15
61	7
62	5
63	18
64	7
65	39
66	5
67	8
68	3
69	6
70	2
71	4
72	3
73	2
74	6
75	8
76	23
77	218
78	267
79	34
80	3
81	3
82	9
83	10
84	10
85	4
86	2
87	2
88	2
89	29
90	7
91	113
92	10
94	3
95	5
96	3
97	13
101	4
102	26
103	191
104	999
105	678
106	86
107	23
108	4
109	10
110	3
112	2
113	3
115	139
116	28
117	17
118	5
119	2
120	2
121	16
122	14
123	3
126	2
127	3
128	4
129	2
130	10
131	4
132	17
133	3
134	3
135	5
136	16
137	8
138	3
139	3
140	3
141	3
153	2
159	25
160	3
164	19
165	78
166	11
167	9
168	4
176	3
177	4
178	95
179	16
180	6
189	7
190	3
191	13
192	13
193	257
194	43
195	5
206	4
207	2
208	18
209	73
210	12
211	2
236	11
269	260
270	45
271	17
272	2
