Mass Spectrum: (1R,1aR,2aS,5R,6R,6aS,7aS)-1,6,6a-trimethyldecahydro-1,2a-methanocyclopropa[b]naphthalen-5-ol
Formula: C15H24O
CAS: 860769-47-7
Molecular weight: 220
m/z	intensity
27	12
29	22
30	1
31	5
38	1
39	39
40	7
41	105
42	8
43	59
44	9
45	5
50	2
51	16
52	8
53	53
54	7
55	111
56	8
57	35
58	5
59	5
61	1
62	1
63	6
64	4
65	46
66	12
67	63
68	9
69	66
70	20
71	20
72	3
73	1
74	2
75	2
76	2
77	123
78	29
79	135
80	28
81	58
82	22
83	30
84	6
85	5
86	1
87	1
88	1
89	4
90	1
91	237
92	51
93	179
94	39
95	79
96	35
97	42
98	5
101	1
102	3
103	23
104	12
105	281
106	190
107	195
108	75
109	55
110	13
111	11
113	4
114	1
115	34
116	14
117	100
118	999
119	245
120	60
121	142
122	28
123	20
124	4
125	3
126	2
127	5
128	15
129	19
130	10
131	132
132	90
133	122
134	33
135	22
136	7
137	10
138	8
139	13
140	2
141	3
142	3
143	7
144	6
145	72
146	53
147	63
148	23
149	8
150	2
151	5
152	2
153	1
156	1
157	4
158	3
159	52
160	15
161	25
162	6
163	6
164	4
165	2
166	1
171	2
172	1
173	15
174	8
175	3
177	5
178	2
179	7
180	1
185	2
187	77
188	11
189	2
191	1
192	1
201	1
202	30
203	8
205	10
206	2
220	39
221	7
