Mass Spectrum: N-[1-Carbazoyl-2-(4-hydroxyphenyl)ethyl]-3,5-dinitrobenzamide
Formula: C16H15N5O7
CAS: 86091-80-7
Molecular weight: 389
m/z	intensity
33	45
34	4
36	1
37	4
38	9
39	36
40	68
41	28
42	17
43	42
44	65
45	25
46	4
48	1
50	24
51	30
52	28
53	30
54	8
55	23
56	16
57	16
58	5
59	7
60	4
62	16
63	46
64	32
65	28
66	9
67	9
68	5
69	8
70	11
71	9
72	2
73	9
74	43
75	237
76	31
77	132
78	42
79	30
80	12
81	7
82	4
83	7
84	4
85	4
86	2
87	6
88	7
89	13
90	16
91	76
92	9
93	5
94	18
95	7
96	4
97	4
98	3
99	3
100	2
101	4
102	6
103	70
104	14
105	12
106	32
107	999
108	91
109	9
110	4
111	5
112	2
113	1
115	2
116	13
117	9
118	12
119	53
120	34
121	10
122	5
123	4
124	1
125	2
126	1
127	2
129	2
130	1
131	5
132	13
133	13
134	45
135	91
136	24
137	16
138	2
139	3
141	1
144	3
145	8
147	277
148	43
149	169
150	17
151	9
152	5
153	1
154	1
160	1
161	3
162	20
163	60
164	10
165	78
166	9
167	2
171	2
173	1
176	2
177	20
178	151
179	32
180	4
181	7
182	2
189	3
190	2
192	3
193	4
195	217
196	19
197	3
203	1
204	2
207	1
208	2
209	3
210	1
211	5
212	3
217	4
218	2
221	1
222	1
223	1
224	1
226	1
227	3
235	1
236	1
237	2
238	1
246	1
251	2
252	3
254	6
255	1
264	1
265	1
267	2
268	1
269	3
282	2
283	7
284	2
295	1
296	1
298	1
299	12
300	7
301	2
313	3
314	4
315	1
325	1
327	1
328	4
329	17
330	60
331	9
332	1
358	6
359	1
389	4
390	1
