Mass Spectrum: 2-(2-Dimethylaminoethyl)isothiourea
Formula: C5H13N3S
CAS: 86114-63-8
Molecular weight: 147
m/z	intensity
12	2
13	9
14	4
15	28
16	2
17	3
18	9
26	6
27	25
28	35
29	16
30	57
31	1
32	2
33	2
34	2
39	1
40	5
41	23
42	239
43	84
44	86
45	11
46	3
47	4
48	1
52	1
54	4
55	4
56	51
57	27
58	999
59	35
60	9
61	21
62	1
63	1
70	24
71	162
72	61
73	3
76	9
86	1
101	1
102	4
103	4
104	3
105	59
106	3
107	3
