Mass Spectrum: Benzene, 1-(bromomethyl)-2-(dibromomethyl)-
Formula: C8H7Br3
CAS: 86128-85-0
Molecular weight: 340
m/z	intensity
26	1
27	14
36	11
37	1
38	31
39	53
40	24
49	8
50	160
51	396
52	64
53	8
61	1
62	40
63	99
64	6
65	0
70	0
73	6
74	60
75	78
76	93
77	377
78	34
79	9
80	14
81	9
82	12
87	5
89	1
90	2
91	78
92	46
97	0
98	6
101	27
102	173
103	999
104	113
105	4
115	0
130	0
131	6
134	2
181	0
182	195
183	40
184	197
185	26
207	0
261	273
262	19
263	528
264	46
265	260
266	21
