Mass Spectrum: Ethyl 2-(5-amino-1H-1,2,4-triazol-3-yl)acetate
Formula: C6H10N4O2
CAS: 86152-46-7
Molecular weight: 170
m/z	intensity
34	19
36	8
37	11
38	25
39	51
40	247
41	393
42	268
43	441
44	64
45	32
46	8
48	6
49	6
51	27
52	26
53	56
54	26
55	114
56	157
57	409
58	88
59	16
60	29
64	12
66	19
67	80
68	589
69	253
70	42
71	15
73	16
77	16
81	21
82	15
83	14
84	9
85	11
86	97
91	26
92	6
96	119
97	999
98	701
99	26
100	6
111	22
123	21
124	276
125	56
126	7
154	6
170	554
171	55
172	8
