Mass Spectrum: Phenylacetic acid, 4-benzyloxy-3-ethoxy-.beta.-hydroxy-, ethyl(ester)
Formula: C19H22O5
CAS: 86153-42-6
Molecular weight: 330
m/z	intensity
41	10
42	1
43	10
44	7
45	11
46	1
47	1
48	2
49	11
50	5
51	19
52	10
53	18
54	7
55	10
56	1
57	8
62	2
63	13
64	7
65	91
66	12
67	2
68	1
69	3
71	1
73	3
74	1
75	1
76	1
77	10
78	4
79	9
80	4
81	23
82	17
83	4
84	10
86	7
88	1
89	13
91	999
92	73
93	67
94	11
95	4
97	1
100	1
103	1
105	7
106	2
107	3
108	2
109	12
110	7
111	53
112	5
115	1
119	4
120	2
121	18
122	37
123	15
124	1
125	1
127	1
128	1
129	1
133	1
135	1
136	2
137	28
138	9
139	22
140	2
141	2
147	1
148	2
149	26
150	4
151	24
152	5
153	2
154	1
155	12
156	1
163	1
164	1
165	34
166	10
167	18
168	2
169	1
176	4
177	2
178	3
179	1
180	1
181	3
182	1
183	22
184	4
193	16
194	5
195	2
199	3
207	4
209	2
210	1
211	12
212	1
220	9
221	5
222	19
223	4
224	1
227	5
228	5
229	1
234	4
237	7
238	6
239	46
240	10
241	2
255	7
256	34
257	319
258	67
259	8
262	1
266	10
267	1
272	1
283	27
284	6
312	3
313	3
328	3
329	2
330	407
331	101
332	15
333	1
