Mass Spectrum: Benzeneethanethiamide, 4-chloro-N-benzyl-
Formula: C15H14ClNS
CAS: 86170-21-0
Molecular weight: 275
m/z	intensity
12	1
15	3
16	4
17	29
18	112
26	4
27	15
28	39
29	6
30	4
31	1
32	4
33	1
34	2
35	2
36	9
37	3
38	12
39	85
40	7
41	22
42	3
43	6
44	16
45	62
46	2
47	4
49	2
50	22
51	43
52	11
53	3
54	1
55	3
56	1
57	4
58	6
59	6
60	6
61	4
62	12
63	51
64	13
65	127
66	7
67	1
69	6
70	2
71	2
72	3
73	10
74	8
75	16
76	7
77	30
78	9
79	20
80	2
81	2
82	2
83	1
84	2
85	3
86	3
87	4
88	4
89	99
90	36
91	999
92	93
93	5
95	1
97	3
99	21
100	2
101	11
102	8
103	8
104	12
105	4
106	29
107	3
108	4
109	1
111	3
112	4
113	1
114	3
115	3
116	16
117	12
118	4
120	1
121	12
122	4
123	25
125	212
126	62
127	72
128	21
129	3
130	6
131	2
132	8
133	8
134	19
135	6
136	4
137	3
138	3
139	2
140	2
144	2
146	1
148	5
149	7
150	29
151	23
152	5
153	6
154	1
155	4
157	14
158	1
159	5
162	2
163	2
164	2
165	7
166	9
167	3
168	15
169	3
170	5
171	2
176	1
178	3
179	3
180	2
181	1
184	4
185	1
186	1
196	1
201	23
202	4
203	8
204	3
206	1
207	1
215	4
216	1
217	1
240	1
241	1
242	8
243	1
244	3
245	0
259	1
260	0
261	0
275	115
276	20
277	43
278	7
279	2
