Mass Spectrum: 2,6-Lutidine-4-[benzylamino]-3,5-dichloro-
Formula: C14H14Cl2N2
CAS: 86200-60-4
Molecular weight: 280
m/z	intensity
41	23
42	60
43	1
47	1
49	10
50	17
51	58
52	19
53	5
54	6
61	5
62	13
63	46
65	126
66	12
67	0
68	0
69	1
70	2
71	1
73	21
74	4
75	10
76	11
77	28
78	12
79	6
80	2
83	8
85	9
86	4
87	6
88	5
89	26
91	999
92	52
93	2
96	1
97	11
99	15
100	2
101	3
102	6
104	14
105	1
106	5
107	1
109	3
111	1
112	3
113	3
114	3
115	6
116	3
117	1
119	2
121	11
122	3
123	8
125	3
126	3
127	4
128	3
129	2
130	0
131	3
132	1
133	6
134	1
135	2
137	0
138	1
139	8
140	10
141	2
142	2
149	1
151	1
152	2
153	5
154	2
155	1
161	0
162	5
164	3
165	2
166	5
167	11
168	4
169	0
174	2
176	2
178	0
180	3
181	1
192	2
193	1
194	0
195	0
201	3
202	3
203	9
204	2
205	6
206	0
207	3
209	2
210	2
229	1
230	3
243	10
245	20
246	1
247	6
279	18
280	104
281	12
282	71
283	12
284	11
285	2
