Mass Spectrum: 3-Azido-5-methylpyrimido[4,5-E]-1,2,4-triazine-6,8(5H,7H)-dione
Formula: C6H4N8O2
CAS: 86229-50-7
Molecular weight: 220
m/z	intensity
40	99
41	409
42	60
52	30
53	242
54	19
58	181
59	9
64	120
65	41
66	179
67	218
68	20
79	30
80	41
81	49
92	29
93	999
94	200
121	189
122	30
164	109
166	178
192	579
193	40
194	180
220	432
221	40
