Mass Spectrum: 4-Methyl-dodecan-1-ol
Formula: C13H28O
CAS: 86234-17-5
Molecular weight: 200
m/z	intensity
26	7
27	98
28	8
29	223
30	6
31	100
39	68
40	17
41	590
42	148
43	602
44	23
45	32
51	3
52	2
53	33
54	27
55	435
56	758
57	706
58	31
59	3
60	6
65	4
66	4
67	51
68	78
69	999
70	315
71	214
72	11
77	4
79	5
80	2
81	25
82	46
83	214
84	263
85	215
86	13
87	59
88	3
91	2
95	10
96	41
97	183
98	160
99	30
100	2
109	2
110	16
111	94
112	48
113	6
125	16
126	83
127	8
138	7
139	89
140	44
141	8
153	2
154	255
155	31
182	26
183	3
