Mass Spectrum: 1,1,4,4-Tetramethylsilacyclohexane
Formula: C9H20Si
CAS: 86236-96-6
Molecular weight: 156
m/z	intensity
53	110
55	270
58	430
59	999
71	150
72	610
73	600
85	470
86	170
87	140
99	330
100	750
113	500
114	170
128	650
129	100
141	280
156	130
