Mass Spectrum: 1-(2-Hydroxyethoxy)-2-(vinylthio)ethane
Formula: C6H12O2S
CAS: 86241-10-3
Molecular weight: 148
m/z	intensity
43	78
44	68
45	999
46	55
47	73
57	38
58	168
59	246
60	136
61	68
73	86
74	34
75	55
85	41
86	24
87	180
88	46
89	23
102	30
104	2
117	12
148	41
