Mass Spectrum: Benzaldehyde, 3,5-dichloro-2-hydroxy-, thiosemicarbazone
Formula: C8H7Cl2N3OS
CAS: 86240-71-3
Molecular weight: 263
m/z	intensity
33	16
34	10
36	23
37	22
38	27
39	33
40	24
41	40
42	67
43	999
44	72
45	46
50	54
51	62
52	24
53	63
54	11
58	19
59	61
60	538
61	65
62	100
63	83
64	22
65	16
68	7
71	17
72	22
73	90
74	94
75	207
76	365
77	212
78	44
79	19
81	10
83	23
84	22
85	39
86	17
87	32
88	48
89	18
93	13
95	10
96	15
97	134
98	26
99	67
100	19
101	22
102	170
103	15
107	18
109	38
110	29
111	86
112	35
113	35
114	22
117	10
119	12
123	21
124	51
125	26
126	26
127	14
132	35
133	62
134	39
135	49
136	17
138	10
139	33
140	12
141	18
145	12
146	13
147	16
148	13
149	21
151	12
152	46
153	17
158	10
159	54
160	18
161	46
162	20
163	18
167	10
168	34
169	17
171	12
173	12
174	13
175	103
176	21
177	66
178	11
179	12
186	15
187	174
188	182
189	166
190	143
191	59
192	39
193	11
203	56
204	21
205	41
206	16
207	16
211	23
212	19
213	38
218	10
232	14
246	20
248	12
262	36
263	417
264	69
265	276
266	36
267	57
268	7
