Mass Spectrum: Z,Z-4,15-Octadecadien-1-ol acetate
Formula: C20H36O2
CAS: 86252-67-7
Molecular weight: 308
m/z	intensity
41	824
42	160
43	999
44	32
45	11
47	1
49	3
50	2
51	10
52	10
53	161
54	311
55	782
56	108
57	134
58	9
59	5
60	0
61	55
62	1
63	2
65	46
66	87
67	751
68	793
69	450
70	61
71	75
72	6
73	15
74	1
75	1
77	48
78	33
79	374
80	429
81	781
82	672
83	259
84	42
85	46
86	7
87	6
88	1
89	1
91	39
92	22
93	202
94	308
95	521
96	459
97	181
98	28
99	10
100	2
101	3
102	0
103	1
104	1
105	12
106	12
107	136
108	208
109	266
110	184
111	67
112	12
113	7
114	2
115	8
116	1
117	2
118	1
119	9
120	10
121	212
122	137
123	141
124	93
125	25
126	5
127	7
128	1
129	2
130	0
131	2
132	1
133	8
134	9
135	209
136	90
137	66
138	59
139	12
140	4
141	4
142	1
143	2
144	0
145	2
146	0
147	7
148	5
149	120
150	48
151	30
152	50
153	10
154	3
155	3
156	1
157	3
158	0
159	2
160	0
161	4
162	2
163	55
164	21
165	17
166	38
167	8
168	2
169	4
170	1
171	1
172	0
173	1
174	0
175	4
176	2
177	34
178	12
179	30
180	23
181	5
182	2
183	2
184	0
185	1
187	0
189	3
190	2
191	30
192	16
193	8
194	23
195	5
196	2
197	2
199	0
201	0
203	1
204	1
205	28
206	10
207	6
208	5
209	3
210	4
211	2
212	0
213	0
217	1
219	69
220	52
221	11
222	18
223	5
224	2
225	2
226	1
227	0
231	1
232	0
233	9
234	5
235	2
236	2
237	2
238	2
239	1
240	0
241	0
245	0
246	1
247	3
248	125
249	26
250	28
251	6
252	2
253	1
254	0
259	1
260	0
261	0
262	1
263	1
264	1
265	3
266	3
267	1
268	1
269	0
274	0
275	0
276	1
277	1
278	2
279	1
280	6
281	1
282	0
287	0
288	0
289	0
290	0
291	1
292	3
293	2
294	3
295	1
302	0
305	0
306	1
307	1
308	18
309	4
310	1
