Mass Spectrum: Z-6,17-Octadecadien-1-ol acetate
Formula: C20H36O2
CAS: 86252-73-5
Molecular weight: 308
m/z	intensity
41	555
42	113
43	999
44	32
45	7
50	1
51	5
52	6
53	78
54	263
55	625
56	81
57	114
58	8
59	2
60	0
61	70
62	1
63	2
65	28
66	63
67	626
68	263
69	242
70	37
71	46
72	3
73	16
74	0
77	28
78	15
79	151
80	275
81	418
82	479
83	218
84	25
85	22
86	2
87	2
91	28
92	10
93	114
94	138
95	393
96	308
97	126
98	16
99	5
100	1
101	2
102	0
103	1
104	1
105	9
106	4
107	49
108	78
109	153
110	96
111	42
112	8
113	3
114	0
115	3
116	1
117	1
119	4
120	4
121	80
122	52
123	67
124	53
125	15
126	3
127	2
128	1
129	3
130	1
131	1
133	4
134	3
135	62
136	29
137	35
138	31
139	6
140	2
141	1
143	1
145	1
147	2
148	1
149	31
150	14
151	16
152	17
153	4
154	1
155	1
157	1
159	1
161	2
162	1
163	11
164	7
165	7
166	14
167	3
168	2
169	1
171	1
172	0
173	0
175	1
177	6
178	6
179	69
180	14
181	2
182	2
183	1
184	0
189	1
191	4
192	2
193	5
194	6
195	1
204	0
205	3
206	2
207	2
208	3
209	1
210	0
211	1
219	2
220	3
221	2
222	8
223	2
224	1
233	1
235	0
236	0
237	1
238	0
247	0
248	41
249	5
250	4
251	0
252	2
256	1
258	0
265	1
266	1
276	0
281	0
282	1
293	2
307	0
308	11
309	2
310	0
