Mass Spectrum: Aminoacetic acid, N-benzyl-N-Carbobenzyloxy-, ethyl ester
Formula: C19H21NO4
CAS: 86255-83-6
Molecular weight: 327
m/z	intensity
41	20
42	16
43	7
44	13
45	2
49	1
50	7
51	25
52	7
53	2
54	1
55	2
56	5
57	3
58	1
59	1
61	1
62	3
63	17
64	2
65	128
66	6
67	0
69	1
70	0
71	1
73	0
74	1
75	1
76	2
77	29
78	10
79	17
80	1
81	0
82	0
83	1
84	1
85	1
86	1
89	25
91	999
92	105
93	4
95	0
97	0
103	1
104	14
105	10
106	75
107	17
108	4
109	0
111	0
115	0
116	0
117	4
118	38
119	11
120	23
121	2
128	0
131	0
132	4
133	2
134	1
135	0
146	4
147	3
148	6
149	14
150	2
152	0
161	1
162	6
163	1
164	21
165	4
166	1
167	2
175	0
178	1
179	2
180	1
181	15
182	2
189	2
190	2
191	2
192	1
194	0
196	65
197	10
198	0
210	40
211	6
212	0
236	1
240	154
241	23
242	2
251	0
252	1
253	359
254	63
255	6
257	0
282	5
283	1
298	1
327	33
328	10
329	1
