Mass Spectrum: Cyclobutylgermane
Formula: C4H10Ge
CAS: 86280-03-7
Molecular weight: 132
m/z	intensity
54	50
55	999
56	43
57	98
70	145
72	210
73	44
74	303
76	75
100	85
102	149
103	61
104	130
126	53
128	209
130	309
132	165
