Mass Spectrum: Cholest-7-en-6-one, 3-(acetyloxy)-9-hydroxy-, (3.beta.,5.alpha.)-
Formula: C29H46O4
CAS: 863-40-1
Molecular weight: 458
m/z	intensity
41	435
42	115
43	999
44	121
45	269
46	12
47	12
50	32
51	44
52	38
53	76
54	32
55	500
56	121
57	423
58	38
59	32
60	102
61	25
62	6
63	19
64	6
65	38
66	25
67	179
68	64
69	339
70	89
71	224
72	25
73	83
74	38
75	19
76	19
77	121
78	211
79	192
80	57
81	237
82	102
83	211
84	76
85	115
86	25
87	25
88	12
89	19
90	12
91	160
92	57
93	205
94	134
95	455
96	115
97	173
98	57
99	44
100	12
101	25
102	32
103	32
104	25
105	160
106	57
107	198
108	108
109	166
110	83
111	108
112	57
113	44
114	19
115	57
116	32
117	70
118	44
119	121
120	70
121	173
122	128
123	198
124	89
125	76
126	32
127	38
128	51
129	76
130	51
131	96
132	57
133	115
134	57
135	121
136	96
137	83
138	38
139	44
140	32
141	57
142	44
143	70
144	44
145	128
146	44
147	108
148	70
149	153
150	64
151	57
152	38
153	44
154	38
155	57
156	32
157	70
158	38
159	89
160	44
161	96
162	51
163	121
164	76
165	57
166	51
167	44
168	96
169	57
170	32
171	64
172	38
173	115
174	44
175	102
176	38
177	57
178	38
179	44
180	32
181	51
182	38
183	57
184	32
185	64
186	32
187	51
188	25
189	57
190	44
191	128
192	38
193	44
194	25
195	25
196	25
197	64
198	32
199	70
200	32
201	51
202	25
203	38
204	25
205	38
206	38
207	44
208	32
209	38
210	32
211	76
212	89
213	76
214	38
215	51
216	25
217	32
218	25
219	32
220	32
221	25
222	12
223	38
224	25
225	83
226	38
227	64
228	44
229	57
230	25
231	51
232	44
233	38
234	19
235	44
236	25
237	25
238	25
239	51
240	25
241	76
242	44
243	102
244	44
245	32
246	25
247	32
248	19
249	12
250	25
251	38
252	25
253	32
254	19
255	25
256	25
257	32
258	25
259	32
260	12
261	32
262	25
263	25
264	19
265	12
266	19
267	64
268	25
269	64
270	19
271	12
272	12
273	25
274	44
275	38
276	76
277	32
278	12
279	6
280	6
281	19
283	6
284	12
285	38
286	44
287	32
288	51
289	32
290	12
291	19
292	12
293	19
294	6
295	19
296	12
297	12
298	12
299	12
300	19
301	12
302	44
303	108
304	641
305	153
306	25
307	12
308	6
309	12
310	12
311	12
312	6
313	32
314	19
315	25
316	12
317	38
318	25
319	12
320	6
321	6
325	12
326	12
327	141
328	70
329	76
330	25
331	19
332	12
337	19
338	6
339	12
340	6
341	25
342	6
343	12
344	12
345	51
346	12
347	6
351	12
352	51
353	25
354	19
355	25
356	25
357	19
358	6
364	25
365	102
366	51
367	44
368	12
369	12
370	19
371	12
372	6
379	12
380	179
381	70
382	89
383	44
384	12
385	6
386	12
387	19
388	6
396	12
397	19
398	275
399	89
400	19
411	6
412	12
414	6
415	6
416	6
425	557
426	179
427	57
428	19
429	6
430	6
439	12
440	237
441	83
442	102
443	32
444	6
454	6
456	6
457	19
458	128
459	44
