Mass Spectrum: Di(1-methylcyclobutyl) ether
Formula: C10H18O
CAS: 86301-90-8
Molecular weight: 154
m/z	intensity
53	20
58	200
59	20
67	50
68	80
69	999
70	60
71	20
86	45
88	40
96	15
97	20
98	100
109	15
111	20
126	40
127	4
139	1
154	1
