Mass Spectrum: O-Benzoyl-N-phenyl-2-chlorobenzamidoxime
Formula: C20H15ClN2O2
CAS: 86339-22-2
Molecular weight: 350
m/z	intensity
51	368
90	280
105	999
111	69
113	19
122	359
125	19
137	559
139	178
153	567
155	189
169	20
171	10
258	270
260	89
273	119
275	40
315	29
332	89
334	30
350	99
352	30
