Mass Spectrum: N-(4-Nitrobenzoyl)-4-chloro-benzamidoxime
Formula: C14H10ClN3O4
CAS: 86339-25-5
Molecular weight: 319
m/z	intensity
76	588
102	463
104	999
111	631
113	209
119	40
120	788
137	751
139	249
150	169
153	691
155	220
165	119
169	239
171	79
238	141
273	520
275	190
284	100
301	69
303	31
319	90
321	29
