Mass Spectrum: 4,4,6-Trimethyl-2-methylamino-5,6-dihydro-4H-1,3-oxazine
Formula: C8H16N2O
CAS: 86354-22-5
Molecular weight: 156
m/z	intensity
37	9
38	9
39	109
40	55
41	183
42	999
43	95
44	89
45	7
51	9
52	7
53	17
54	20
55	58
56	131
57	438
58	419
59	16
63	4
65	8
67	28
68	16
69	29
70	17
71	6
79	5
81	9
82	12
83	24
84	315
85	23
97	10
98	16
99	47
112	7
113	5
114	54
115	13
122	10
141	499
142	50
156	83
157	7
