Mass Spectrum: 1-(2,3,5-Tri-O-acetyl-.beta.-d-arabinofuranosyl)-5-(2-E-bromovinyl)uracil
Formula: C17H19BrN2O9
CAS: 86359-94-6
Molecular weight: 474
m/z	intensity
12	3
13	1
14	7
15	48
16	8
17	23
18	83
19	2
20	1
26	2
27	14
28	55
29	21
30	3
31	4
32	7
36	1
37	2
38	4
39	19
40	4
41	16
42	16
43	999
44	35
45	9
50	3
51	14
52	6
53	9
54	3
55	8
56	3
57	12
58	1
60	5
61	5
64	4
65	5
66	13
67	8
68	5
69	41
70	9
71	6
72	1
73	10
74	1
77	2
78	3
79	5
80	11
81	11
82	7
83	2
84	2
85	19
86	4
87	3
91	3
93	5
94	11
95	5
97	273
98	19
99	5
101	1
103	4
105	1
106	2
107	3
108	5
109	6
110	2
111	2
112	2
113	3
114	4
115	27
116	2
117	2
119	4
120	4
121	4
122	8
125	1
127	11
128	3
129	2
130	3
131	2
132	3
133	1
134	1
135	1
136	5
137	72
138	8
139	433
140	36
141	4
142	2
143	5
144	2
145	1
146	3
147	1
148	2
149	2
150	2
157	62
158	7
159	1
161	1
165	1
172	1
173	1
174	1
175	1
176	2
177	1
178	1
179	7
180	1
185	2
187	1
188	1
190	1
191	1
199	5
200	1
201	1
202	1
203	2
214	1
215	6
216	3
217	8
218	2
219	3
221	2
229	1
252	4
253	0
254	3
255	0
257	1
258	1
259	149
260	18
261	3
262	0
268	0
271	1
287	0
289	1
293	0
295	2
296	0
297	3
298	0
299	2
301	1
302	0
313	0
315	0
335	3
336	0
379	0
395	9
396	1
397	0
403	0
473	0
474	1
475	0
476	1
