Mass Spectrum: 2-Oxazoline, 4,4-dimethyl-2-(heptadec-8-enyl)-
Formula: C22H41NO
CAS: 86366-73-6
Molecular weight: 335
m/z	intensity
111	73
112	46
113	999
114	83
115	42
116	20
117	33
118	9
119	40
120	20
121	50
122	68
123	44
124	66
125	26
126	932
127	158
128	28
129	51
130	20
131	42
132	7
133	17
134	24
135	37
136	46
137	29
138	42
139	17
140	110
141	4
142	17
143	22
144	9
145	9
146	6
147	15
148	17
149	20
150	26
151	11
152	62
153	22
154	39
155	22
156	6
157	6
158	6
159	6
160	9
161	9
162	11
163	12
164	28
165	35
166	49
167	22
168	68
169	17
171	7
173	9
174	8
175	8
176	7
177	8
178	9
179	20
180	39
181	28
182	186
183	31
184	4
185	1
186	8
187	2
188	5
189	7
190	6
191	5
192	9
193	10
194	10
195	10
196	50
197	11
198	7
199	4
200	4
201	2
203	7
204	13
206	22
207	9
208	87
209	18
210	10
211	4
212	3
213	5
214	1
216	4
217	2
218	3
219	3
220	17
221	5
222	53
223	14
224	6
225	4
227	8
231	2
232	2
233	2
234	14
235	6
236	179
237	37
238	9
239	8
240	4
242	9
244	6
246	4
247	2
248	7
249	7
250	161
251	31
252	7
256	4
258	3
262	6
263	5
264	44
265	12
266	3
269	3
273	5
276	4
278	46
279	7
280	10
290	9
292	55
293	10
294	3
298	4
303	3
304	2
305	2
306	22
307	6
308	4
309	2
320	95
321	20
334	42
335	103
336	26
