Mass Spectrum: Trichloroethanol, TBDMS derivative
Formula: C8H17Cl3OSi
CAS: 86379-25-1
Molecular weight: 262
m/z	intensity
15	4
26	5
27	18
28	7
29	78
30	3
31	7
35	2
36	1
37	1
38	3
39	48
40	8
41	191
42	32
43	64
44	10
45	89
46	6
47	31
48	4
49	24
50	3
51	10
52	1
53	11
54	3
55	24
56	51
57	762
58	105
59	88
60	21
61	43
62	4
63	49
64	5
65	74
66	6
67	25
68	2
69	5
70	2
71	4
73	368
74	37
75	90
76	9
77	87
78	11
79	51
80	6
81	11
82	7
83	7
84	5
85	14
86	4
87	2
88	30
89	151
90	14
91	7
93	999
94	125
95	554
96	70
97	32
98	21
99	12
100	7
101	4
102	1
103	1
105	3
106	1
107	2
108	1
109	1
110	1
111	1
112	2
113	60
114	6
115	133
116	14
117	50
119	41
120	1
121	14
123	2
125	1
127	1
131	1
133	4
135	31
136	4
137	11
138	1
139	2
141	1
145	6
146	1
155	26
156	2
157	17
158	1
159	3
169	39
170	7
171	35
172	6
173	11
174	1
175	1
191	4
192	1
193	4
195	1
205	58
206	7
207	57
208	6
209	20
210	2
211	3
213	1
