Mass Spectrum: 5,6-Dihydro-2-phenylamino-4H-1,3-thiazin-5-one
Formula: C10H10N2OS
CAS: 86387-90-8
Molecular weight: 206
m/z	intensity
40	83
41	156
42	202
43	212
44	67
45	329
46	171
47	191
48	89
49	563
50	289
51	923
52	171
53	34
54	82
55	275
56	50
57	50
58	34
59	91
60	126
61	64
62	44
63	109
64	107
65	221
66	93
67	20
68	9
69	33
70	19
71	25
72	163
73	25
74	71
75	55
76	164
77	999
78	201
79	47
80	10
81	18
82	29
83	155
84	247
85	123
86	180
87	33
88	33
89	37
90	32
91	185
92	123
93	125
94	21
95	11
96	11
97	10
102	9
103	98
104	631
105	99
106	189
107	30
108	20
109	81
110	98
111	20
112	11
117	32
118	290
119	81
120	25
121	11
123	21
130	21
131	421
132	121
133	13
134	13
135	262
136	383
137	53
138	18
145	27
146	8
148	9
149	14
150	58
151	11
162	9
163	200
164	637
165	79
166	36
173	20
174	12
176	10
177	210
178	31
179	13
204	19
205	236
206	455
207	71
208	27
