Mass Spectrum: Chromium, tricarbonyl(.eta.6-1,4-dichlorobenzene)-
Formula: C9H4Cl2CrO3
CAS: 86409-62-3
Molecular weight: 282
m/z	intensity
26	0
27	2
28	11
29	1
35	0
36	0
37	1
38	1
39	3
40	17
41	1
43	0
49	1
50	91
51	24
52	999
53	123
54	30
55	1
57	0
61	1
62	3
63	2
64	2
65	1
68	0
69	2
71	1
72	0
73	2
74	16
75	29
76	43
77	22
78	7
79	1
80	61
81	7
82	2
83	0
84	0
85	4
86	0
87	79
88	11
89	26
90	3
91	0
92	0
93	0
95	0
96	2
97	1
99	0
100	0
101	6
102	1
103	1
104	0
105	0
106	0
107	0
108	11
109	1
110	2
111	5
112	2
113	2
114	1
115	4
116	0
117	1
118	0
119	0
121	0
122	1
123	0
124	0
125	1
126	0
127	15
128	5
129	4
130	11
131	1
135	0
136	0
137	0
144	0
146	3
147	0
148	2
149	0
150	0
157	1
158	1
160	0
161	1
162	10
163	7
164	82
165	17
166	28
167	4
168	0
178	0
185	0
186	0
190	1
191	2
192	15
193	3
194	5
195	0
196	6
197	1
198	121
199	22
200	80
201	14
202	15
203	2
204	0
212	0
213	0
214	11
215	2
216	0
218	0
219	0
220	4
221	0
222	1
223	0
224	1
226	37
227	7
228	24
229	4
230	4
231	0
244	0
246	10
247	3
248	79
249	18
250	31
251	6
252	1
254	6
255	1
256	3
257	0
258	1
278	0
280	6
282	114
283	25
284	76
285	15
286	15
287	3
288	0
