Mass Spectrum: Propionamide, 2,2-dimethyl-N-(5,6,7,9-tetrahydro-9-oxo-1,2,3,10-tetramethoxybenzo(a)heptalen-7-yl)-, (S)-
Formula: C25H31NO6
CAS: 86436-38-6
Molecular weight: 441
m/z	intensity
41	395
42	51
43	45
44	27
45	19
47	4
49	10
50	5
51	13
52	5
53	14
54	8
55	52
56	24
57	999
58	49
59	10
60	7
63	10
64	4
65	8
67	9
69	138
70	11
71	9
72	8
73	12
75	12
76	10
77	19
78	13
79	6
81	6
82	7
83	12
84	13
85	24
86	7
87	4
88	4
89	10
90	4
91	11
92	5
93	4
95	5
96	4
97	6
99	6
100	21
101	6
102	16
103	7
104	5
105	6
106	9
107	4
111	5
112	3
113	10
114	13
115	30
116	7
117	4
118	6
119	15
120	7
121	4
125	6
126	13
127	19
128	19
129	13
131	37
132	5
133	6
134	5
135	4
137	3
138	4
139	26
140	17
141	24
142	10
143	5
144	4
145	5
147	4
148	4
149	7
150	6
151	12
152	31
153	21
154	13
155	14
156	12
157	8
158	4
163	7
164	7
165	23
166	11
167	14
168	17
169	20
170	12
171	9
176	9
177	7
178	10
179	9
180	10
181	23
182	13
183	20
184	12
185	9
189	3
190	4
191	8
192	6
193	7
194	9
195	18
196	15
197	15
198	10
199	13
200	4
205	5
206	5
207	12
208	11
209	14
210	13
211	27
212	16
213	10
214	4
219	30
220	6
221	10
222	11
223	16
224	18
225	17
226	13
227	18
228	8
235	11
236	11
237	15
238	23
239	31
240	16
241	14
242	11
243	4
249	6
250	9
251	24
252	19
253	17
254	46
255	27
256	9
257	8
263	4
264	12
265	17
266	25
267	33
268	23
269	33
270	27
271	12
272	4
278	4
279	8
280	10
281	100
282	57
283	25
284	16
285	17
286	9
293	4
294	29
295	12
296	26
297	100
298	45
299	39
300	36
301	8
308	4
309	10
310	19
311	22
312	432
313	93
314	57
315	11
322	5
324	6
325	15
326	10
327	8
328	60
329	13
338	6
339	4
340	30
341	9
342	6
355	3
356	42
357	10
364	11
367	7
382	4
385	4
395	7
398	6
412	5
413	48
414	13
426	8
441	120
442	39
443	6
