Mass Spectrum: Colchicine, N-desacetyl-N-[4-acetoxy-3,5-dimethoxycinnamoyl]-
Formula: C33H35NO10
CAS: 86436-48-8
Molecular weight: 605
m/z	intensity
41	28
42	95
43	999
44	49
45	38
51	29
53	35
55	60
56	20
57	58
63	22
65	42
67	17
69	69
71	27
75	28
76	19
77	60
78	25
79	45
81	29
83	22
89	25
91	120
92	34
93	30
95	19
97	35
99	14
103	21
105	43
106	20
107	34
109	17
115	28
117	28
118	25
119	106
120	63
121	70
123	19
125	18
127	15
128	17
129	31
131	35
132	61
133	62
134	46
135	66
136	28
137	26
139	37
140	16
141	18
143	15
145	41
146	16
147	134
148	22
149	84
150	13
151	28
152	56
153	50
154	43
155	27
156	15
157	14
158	12
160	17
161	57
162	21
163	74
164	30
165	71
166	24
167	78
168	77
169	43
170	13
171	16
175	143
176	52
177	88
178	47
179	63
180	92
181	81
182	25
183	75
184	18
185	15
189	31
190	17
191	20
192	19
193	21
194	21
195	57
196	33
197	35
198	33
199	33
200	13
205	62
206	44
207	547
208	306
209	101
210	53
211	74
212	44
213	28
219	14
220	21
221	66
222	118
223	212
224	371
225	87
226	41
227	51
228	15
234	12
235	30
236	41
237	59
238	78
239	96
240	48
241	141
242	58
243	49
248	12
249	26
250	31
251	82
252	63
253	62
254	140
255	80
256	47
257	18
258	27
260	23
262	13
263	13
264	20
265	49
266	104
267	111
268	78
269	77
270	110
271	44
272	18
278	14
279	21
280	46
281	240
282	205
283	96
284	83
285	90
286	58
287	13
293	12
294	34
295	46
296	94
297	199
298	148
299	170
300	250
301	84
302	19
308	16
309	38
310	50
311	98
312	493
313	181
314	272
315	74
316	12
322	13
323	14
324	23
325	53
326	74
327	88
328	423
329	127
330	18
337	12
338	45
339	41
340	166
341	52
342	71
343	16
352	13
353	12
354	46
355	75
356	533
357	159
358	30
366	89
367	16
368	19
370	13
372	21
378	12
384	13
396	49
397	103
398	21
409	12
518	13
519	12
520	32
532	13
534	13
546	43
562	65
563	92
564	31
604	15
605	83
606	31
