Mass Spectrum: Butanamide, N-(5,6,7,9-tetrahydro-1,2,3,10-tetramethyloxy-9-oxobenzo(a)heptalen-7-yl)-, (S)-
Formula: C24H29NO6
CAS: 86436-36-4
Molecular weight: 427
m/z	intensity
41	250
43	999
44	58
45	18
51	9
53	12
54	8
55	40
56	13
57	19
59	17
60	9
63	12
65	8
67	9
69	21
70	32
71	209
72	11
73	8
75	14
76	10
77	18
78	8
79	6
82	7
83	8
84	8
86	8
88	22
89	12
90	6
91	12
92	6
95	6
97	7
99	6
101	11
102	12
103	9
104	8
105	8
106	7
111	6
112	8
113	13
114	12
115	33
116	9
117	8
118	6
119	9
120	8
121	6
125	7
126	19
127	28
128	32
129	13
130	8
131	8
132	6
133	8
134	6
135	5
137	5
138	6
139	46
140	29
141	36
142	14
143	9
144	6
145	7
146	5
147	7
149	9
150	7
151	20
152	50
153	35
154	22
155	22
156	19
157	13
158	6
159	5
160	6
162	5
163	12
164	11
165	37
166	17
167	23
168	33
169	26
170	15
171	15
172	6
176	8
177	10
178	15
179	12
180	17
181	32
182	20
183	34
184	23
185	16
186	6
189	6
190	6
191	7
192	11
193	11
194	16
195	29
196	25
197	25
198	18
199	22
200	8
205	8
206	9
207	8
208	26
209	24
210	24
211	49
212	28
213	18
214	6
219	7
220	9
221	14
222	20
223	30
224	30
225	29
226	24
227	27
228	14
229	5
234	6
235	22
236	20
237	25
238	47
239	58
240	32
241	24
242	22
243	8
249	10
250	20
251	44
252	33
253	34
254	106
255	48
256	26
257	11
258	4
263	8
264	10
265	35
266	58
267	60
268	47
269	72
270	75
271	25
272	7
278	7
279	18
280	22
281	222
282	106
283	55
284	40
285	21
286	24
287	5
293	6
294	41
295	20
296	52
297	219
298	141
299	85
300	114
301	21
308	9
309	17
310	19
311	209
312	932
313	199
314	106
315	21
316	4
322	7
323	5
324	10
325	24
326	20
327	14
328	79
329	23
330	5
338	6
339	8
340	48
341	14
342	15
350	26
351	7
353	5
356	71
357	18
358	5
368	5
371	9
384	16
385	6
398	11
399	120
400	28
401	5
427	378
428	106
429	19
