Mass Spectrum: (E,E)-3,5-Undecadien-1-yne
Formula: C11H16
CAS: 86448-54-6
Molecular weight: 148
m/z	intensity
38	0
39	149
40	14
41	151
42	5
43	32
44	2
50	21
51	58
52	48
53	13
55	34
57	12
62	0
63	41
64	1
65	199
66	15
67	45
76	2
77	108
78	999
79	86
80	0
81	5
89	12
90	1
91	578
92	97
93	2
96	8
103	17
105	65
106	0
119	6
148	246
149	21
