Mass Spectrum: 1-(2-Pyrazinyl)-2,2-dimethylpropanone
Formula: C9H12N2O
CAS: 86461-65-6
Molecular weight: 164
m/z	intensity
37	3
38	6
39	68
40	24
41	422
42	35
43	192
44	26
45	30
50	3
51	19
52	113
53	83
54	11
55	26
56	126
57	999
58	44
60	3
61	30
65	2
66	3
67	4
68	2
69	5
70	29
71	4
73	13
74	2
75	5
77	4
78	4
79	104
80	655
81	99
82	4
83	2
85	4
88	7
91	2
93	9
94	55
95	6
105	2
107	43
108	289
109	102
110	6
119	3
121	40
122	6
133	3
134	3
135	9
136	72
137	8
145	2
147	2
149	23
150	4
164	84
165	10
