Mass Spectrum: 1-(2-Pyrazinyl)-3-methyl-1-butanone
Formula: C9H12N2O
CAS: 86461-64-5
Molecular weight: 164
m/z	intensity
37	4
38	10
39	98
40	19
41	307
42	43
43	178
44	8
45	5
50	4
51	28
52	217
53	126
54	15
55	19
56	23
57	483
58	23
60	2
61	5
65	3
66	9
67	9
68	5
69	86
70	9
73	2
74	8
77	5
78	8
79	312
80	999
81	92
82	5
83	4
84	5
85	91
86	4
93	8
94	152
95	10
104	2
105	5
106	2
107	172
108	417
109	28
110	2
119	4
121	66
122	67
123	12
131	3
134	2
135	9
136	95
137	9
145	15
146	2
147	6
149	60
150	6
163	8
164	120
165	14
