Mass Spectrum: 1-(5,6-Dimethyl-2-pyrazinyl)propanone
Formula: C9H12N2O
CAS: 86461-67-8
Molecular weight: 164
m/z	intensity
38	34
39	141
40	46
41	58
42	83
43	15
44	15
47	3
49	30
50	15
51	54
52	87
53	444
54	103
55	65
56	36
57	264
58	8
59	12
60	2
63	5
64	17
65	17
66	266
67	183
68	22
69	3
73	3
77	3
78	8
79	15
80	47
81	22
82	8
84	18
86	11
88	2
92	3
93	6
94	5
95	4
104	2
105	3
106	5
107	999
108	595
109	89
110	9
117	3
121	8
122	24
123	13
133	3
135	249
136	556
137	58
138	2
145	8
146	2
147	7
148	3
149	2
163	68
164	233
165	27
