Mass Spectrum: Oxirane, 2-butyl-2-(chloromethyl)-
Formula: C7H13ClO
CAS: 86488-91-7
Molecular weight: 148
m/z	intensity
41	140
42	140
43	120
55	180
77	270
79	110
99	100
106	999
108	350
119	540
121	190
133	30
135	10
