Mass Spectrum: Methane-d, trichloro-
Formula: CCl3D
CAS: 865-49-6
Molecular weight: 119
m/z	intensity
12	1
14	6
35	42
37	19
39	2
47	175
48	2
49	138
50	2
51	28
70	5
72	3
82	20
84	999
85	11
86	686
87	7
88	110
89	1
117	4
119	26
121	22
123	7
