Mass Spectrum: dl-2-Amino-2-methylsuccinic acid hydrate
Formula: C5H9NO4
CAS: 866-73-9
Molecular weight: 147
m/z	intensity
13	1
14	9
15	70
16	8
17	31
18	178
19	3
25	2
26	9
27	29
28	118
29	30
30	33
31	8
32	1
36	2
37	8
38	16
39	101
40	61
41	149
42	900
43	321
44	88
45	82
46	5
47	1
50	1
51	3
52	7
53	6
54	16
55	11
56	97
57	123
58	44
59	3
60	57
61	5
62	2
66	1
67	5
68	44
69	13
70	22
71	2
72	4
73	1
81	1
82	3
83	10
84	540
85	50
86	68
87	8
88	121
89	5
90	2
91	1
94	2
95	1
97	1
100	1
101	6
102	999
103	57
104	6
105	1
110	2
111	4
112	3
113	3
114	16
115	1
123	2
124	1
127	1
130	1
132	8
148	4
149	1
150	1
