Mass Spectrum: Acetone, 1-[4-(dimethylaminoethoxy)phenyl]-
Formula: C13H19NO2
CAS: 86608-11-9
Molecular weight: 221
m/z	intensity
40	30
41	10
42	40
43	60
44	40
55	10
56	20
57	40
58	999
59	30
69	20
70	20
71	30
72	50
81	10
83	10
97	10
107	10
221	10
