Mass Spectrum: 3-(2-Morpholinoethylamino)-4-methyl-6-(2-hydroxyphenyl)pyridazine
Formula: C17H22N4O2
CAS: 86663-23-2
Molecular weight: 314
m/z	intensity
36	125
55	70
79	193
80	362
81	176
82	547
93	141
94	293
95	90
96	127
98	70
100	999
101	70
112	20
113	555
114	90
115	50
201	352
202	208
203	30
214	90
314	20
