Mass Spectrum: (1-Benzenesulfonyl-1H-pyrrol-3-yl)acetic acid, methyl ester
Formula: C13H13NO4S
CAS: 86688-97-3
Molecular weight: 279
m/z	intensity
26	16
27	40
28	19
29	6
38	9
39	49
40	7
41	27
42	22
43	2
44	3
45	6
50	100
51	391
52	231
53	71
54	5
55	4
59	108
63	8
64	2
65	15
66	3
67	12
68	3
69	3
74	11
75	10
76	21
77	999
78	109
79	149
80	97
81	6
93	4
94	8
95	4
96	16
97	17
103	2
104	9
106	13
109	3
110	14
115	2
125	37
126	3
127	9
128	22
129	6
138	7
139	3
141	346
142	24
143	16
154	12
155	6
156	36
157	2
220	624
221	84
222	35
223	4
279	316
280	49
281	19
282	2
