Mass Spectrum: Cis-1,3-di(n-hexyl)cyclohexane
Formula: C18H36
CAS: 86701-17-9
Molecular weight: 252
m/z	intensity
41	920
42	110
43	890
45	230
54	150
55	999
56	120
57	370
58	30
67	330
68	120
69	650
70	100
71	220
72	20
81	260
82	180
83	970
85	200
95	100
96	270
97	960
98	80
111	60
125	120
126	20
166	300
167	380
168	60
252	160
253	32
254	3
