Mass Spectrum: 1,3-Dimethyl-5-n-decylcyclohexane
Formula: C18H36
CAS: 86710-36-3
Molecular weight: 252
m/z	intensity
41	320
42	60
43	350
44	20
55	550
56	100
57	260
67	80
68	90
69	870
70	120
71	130
82	130
83	130
95	210
96	20
97	170
98	20
110	480
111	999
112	120
125	40
140	120
252	30
253	6
254	0
