Mass Spectrum: 4-Acetyl-2-methylsulfonyl-5-phenyl-.delta.(2)-1,3,4-thiadiazoline
Formula: C11H12N2O3S2
CAS: 86738-34-3
Molecular weight: 284
m/z	intensity
42	149
43	999
44	79
45	95
48	91
50	119
51	303
63	181
64	124
65	79
76	864
77	99
89	105
90	152
103	214
104	734
105	191
162	670
163	931
164	122
205	175
284	72
