Mass Spectrum: Benzene, (5-methyl-1-hexenyl)-
Formula: C13H18
CAS: 86761-76-4
Molecular weight: 174
m/z	intensity
26	3
27	88
28	5
29	81
30	3
38	5
39	123
40	11
41	146
42	13
43	63
44	4
50	16
51	61
52	15
53	27
54	7
55	78
56	9
57	40
58	4
62	6
63	31
64	10
65	54
66	5
67	7
68	2
69	38
70	8
71	3
74	5
75	9
76	14
77	56
78	40
79	11
80	2
81	18
82	25
83	88
84	7
85	1
86	2
87	3
88	2
89	23
90	6
91	373
92	179
93	13
94	1
95	2
96	12
97	2
101	4
102	22
103	33
104	999
105	163
106	12
107	3
115	307
116	123
117	963
118	353
119	27
120	3
126	3
127	15
128	38
129	46
130	18
131	144
132	21
133	5
141	4
142	2
143	3
144	1
145	3
146	4
159	5
174	350
175	44
176	7
