Mass Spectrum: 3-Hydroxypregn-5-en-20-one hydrazone
Formula: C21H34N2O
CAS: 86770-54-9
Molecular weight: 330
m/z	intensity
15	6
27	24
29	66
30	62
31	19
32	15
33	5
39	41
40	12
41	158
42	115
43	85
44	61
45	7
51	13
53	71
54	25
55	202
56	42
57	196
58	21
59	180
60	6
63	4
65	49
66	22
67	114
68	73
69	64
70	68
72	989
73	63
77	135
78	39
79	198
80	44
81	107
82	74
83	161
84	246
85	999
86	69
87	3
89	6
91	272
92	45
93	123
94	48
95	66
96	26
97	51
98	50
99	81
100	12
101	7
102	8
103	32
104	24
105	191
106	39
107	84
108	31
109	41
110	15
111	44
112	13
113	13
115	55
116	27
117	87
118	33
119	94
120	44
121	44
122	20
123	25
124	9
127	15
128	58
129	79
130	34
131	85
132	29
133	52
134	29
135	28
136	11
137	17
138	6
139	12
140	5
141	36
142	26
143	84
144	29
145	85
146	21
147	26
148	10
149	13
150	5
151	16
152	13
153	24
154	10
155	24
156	19
157	50
158	39
159	49
160	21
161	19
162	6
163	8
164	4
165	15
166	6
167	13
168	9
169	23
170	11
171	29
172	14
173	20
174	10
175	15
176	8
178	5
179	7
180	3
181	11
182	7
183	28
184	11
185	17
186	9
187	14
188	7
189	6
191	8
192	7
194	4
195	14
196	7
197	29
198	12
199	22
200	8
201	15
202	4
203	4
205	8
209	9
210	7
211	12
212	8
213	18
214	7
215	10
216	4
219	3
222	4
223	18
224	8
225	12
226	5
227	5
228	3
229	6
230	4
231	3
238	3
239	39
240	13
241	8
243	3
252	3
254	6
255	3
256	5
257	6
258	6
260	5
263	3
265	14
266	6
269	5
270	6
271	4
272	7
273	7
275	10
280	8
281	30
282	8
284	5
285	4
286	6
287	14
288	4
296	6
297	29
298	47
299	22
300	11
301	7
302	5
311	15
312	10
314	348
315	568
316	117
317	14
330	157
331	39
332	4
