Mass Spectrum: O-3-[2,4,5-Trichloro-phenoxypropyl]dimethylketoxime
Formula: C12H14Cl3NO2
CAS: 86799-69-1
Molecular weight: 309
m/z	intensity
41	159
42	108
43	16
44	12
45	4
47	4
49	12
50	4
51	9
52	5
53	7
54	32
56	850
57	33
58	26
59	1
60	2
61	11
62	26
63	6
64	0
65	2
66	0
67	5
68	7
69	7
70	18
72	24
73	30
74	23
75	5
76	0
77	3
78	6
79	7
80	0
81	2
83	14
84	68
85	7
86	13
87	2
88	1
89	2
90	0
91	1
93	1
94	0
95	2
96	4
97	52
98	1
99	22
100	2
101	1
102	1
103	0
104	2
105	2
107	17
108	5
109	20
110	2
111	7
112	0
114	999
115	64
116	3
118	0
119	2
120	1
121	1
123	2
124	1
125	3
126	0
127	0
130	3
131	2
132	13
133	9
134	8
135	4
136	2
137	1
139	0
141	1
143	10
144	5
145	9
146	7
147	4
148	3
149	2
150	1
152	0
154	1
155	1
157	1
159	5
160	4
161	4
162	7
163	2
164	3
165	0
167	44
169	43
171	15
172	0
173	2
174	0
175	0
177	0
179	11
181	12
182	1
183	4
185	0
187	2
188	2
189	2
190	2
191	1
192	0
193	1
195	11
196	20
197	9
198	19
199	6
200	4
201	1
202	2
204	1
207	0
209	4
210	1
211	4
213	1
218	2
220	1
222	5
223	1
224	5
225	1
226	1
309	4
310	0
311	4
312	0
313	1
