Mass Spectrum: 2'-Ethoxyformanilide
Formula: C9H11NO2
CAS: 86796-85-2
Molecular weight: 165
m/z	intensity
14	1
15	1
26	11
27	68
28	29
29	55
30	5
31	1
37	4
38	14
39	55
40	7
41	12
42	7
43	6
44	5
45	3
49	2
50	23
51	62
52	107
53	145
54	27
55	7
56	1
57	1
61	4
62	9
63	38
64	43
65	90
66	17
67	3
68	3
69	1
74	3
75	4
76	6
77	13
78	22
79	30
80	529
81	76
82	8
83	1
85	1
89	1
90	6
91	46
92	44
93	43
94	17
95	5
96	1
104	1
105	10
106	5
107	3
108	729
109	999
110	77
111	4
114	1
117	1
118	5
119	73
120	45
121	9
122	34
123	3
132	6
133	1
134	2
135	12
136	52
137	188
138	17
139	1
146	2
147	7
148	4
149	1
150	2
163	1
164	1
165	887
166	90
167	8
