Mass Spectrum: 2-Hydroxyethyl methacrylate
Formula: C6H10O3
CAS: 868-77-9
Molecular weight: 130
m/z	intensity
14	6
15	28
16	2
17	1
18	1
19	3
25	1
26	12
27	61
28	126
29	51
30	5
31	69
32	27
33	1
37	9
38	21
39	229
40	68
41	865
42	40
43	57
44	87
45	124
46	3
53	5
54	3
55	12
56	6
57	6
58	6
59	15
61	2
68	17
69	999
70	48
71	15
72	3
73	1
74	2
75	3
82	4
83	1
84	9
85	11
86	13
87	417
88	23
89	3
99	43
100	72
101	11
112	6
113	12
114	2
