Mass Spectrum: 1-Phenyl-2-(5-phenyl-4H-[1,2,4]triazol-3-ylsulfanyl)-ethanone
Formula: C16H13N3OS
CAS: 86812-61-5
Molecular weight: 295
m/z	intensity
33	1
34	4
36	1
37	1
38	7
39	39
40	58
41	14
42	12
43	15
44	17
45	40
46	8
47	2
48	1
49	0
50	34
51	107
52	15
53	6
54	0
55	5
56	1
57	4
58	15
59	8
60	5
61	2
62	10
63	30
64	13
65	34
66	3
67	1
68	0
69	4
70	5
71	4
72	3
73	3
74	9
75	14
76	54
77	376
78	44
79	16
80	1
81	0
82	0
83	1
84	0
85	2
86	1
87	8
88	5
89	19
90	8
91	66
92	8
93	1
94	0
95	1
96	0
97	0
99	0
100	1
101	4
102	9
103	143
104	108
105	999
106	78
107	5
108	1
111	1
112	0
113	0
114	2
115	5
116	2
117	4
118	33
119	14
120	9
121	7
122	1
123	0
127	0
128	1
129	2
130	0
131	5
132	3
133	120
134	19
135	2
136	0
139	2
141	1
144	0
145	2
146	16
147	10
148	3
149	3
150	1
152	0
158	0
160	0
161	10
162	1
163	2
164	0
165	0
171	0
174	0
176	2
177	4
178	0
179	0
181	0
182	3
188	0
189	1
190	80
191	9
192	4
193	0
217	0
218	0
234	3
235	2
236	0
243	0
247	4
248	0
250	0
252	4
253	69
254	12
255	3
262	3
263	0
266	2
267	39
268	6
269	1
277	10
278	1
292	0
293	1
294	22
295	187
296	36
297	11
298	1
