Mass Spectrum: Benzenamine, 4-propylsulfonyl-
Formula: C9H13NO2S
CAS: 86810-78-8
Molecular weight: 199
m/z	intensity
29	28
30	9
31	3
32	57
33	0
34	1
35	1
36	4
37	17
38	69
39	405
40	52
41	386
42	58
43	194
44	21
45	27
46	4
47	4
48	8
49	4
50	28
51	36
52	80
53	51
54	32
55	9
56	4
57	11
58	5
59	3
60	4
61	10
62	36
63	111
64	116
65	651
66	119
67	14
68	7
69	16
70	8
71	9
72	2
73	11
74	11
75	12
76	12
77	18
78	15
79	17
80	89
81	20
82	5
83	7
84	5
85	10
86	1
87	2
88	2
89	8
90	21
91	87
92	750
93	999
94	72
96	18
97	7
98	3
99	2
100	1
101	3
102	4
103	3
104	3
105	4
106	45
108	782
109	69
110	7
111	3
112	10
113	2
114	1
115	1
116	0
117	3
118	4
119	5
120	4
121	2
122	3
123	18
124	21
125	5
126	1
127	1
128	1
129	1
130	2
131	1
132	2
133	2
134	2
135	3
136	1
137	1
140	564
141	45
142	26
143	2
145	0
146	3
147	2
148	0
149	0
150	0
151	0
152	0
153	0
156	620
157	118
158	35
159	6
160	0
163	1
167	1
169	1
171	3
172	2
176	5
177	1
182	0
183	0
184	0
192	4
193	11
194	1
197	2
199	511
200	58
201	26
202	3
203	0
