Mass Spectrum: Butanoic acid, 3-(1-ethoxyethoxy)-2-methyl-, ethyl ester
Formula: C11H22O4
CAS: 86845-49-0
Molecular weight: 218
m/z	intensity
26	14
27	106
28	34
29	229
30	12
31	43
38	1
39	19
40	3
41	62
42	13
43	169
44	115
45	554
46	19
47	22
50	1
51	2
53	8
54	4
55	95
56	116
57	104
58	7
59	9
60	1
61	11
69	8
70	4
71	25
72	69
73	999
74	218
75	32
76	1
77	0
81	2
82	3
83	76
84	8
85	49
86	3
87	9
88	3
89	6
91	1
97	0
98	1
99	17
100	10
101	134
102	171
103	21
104	1
109	1
112	1
113	4
114	1
115	10
116	3
117	9
126	1
127	6
128	12
129	286
130	31
131	17
132	1
143	3
144	1
145	13
146	1
157	0
159	1
172	6
173	60
174	9
175	1
203	9
204	1
