Mass Spectrum: 2,4-Octadienoic acid, 7-hydroxy-6-methyl-, [r-[r*,s*-(E,E)]]-
Formula: C9H14O3
CAS: 86845-56-9
Molecular weight: 170
m/z	intensity
26	37
27	316
28	49
29	150
30	8
31	43
35	61
36	7
37	19
38	37
39	339
40	56
41	325
42	49
43	442
44	39
45	999
46	30
47	91
48	46
49	31
50	73
51	163
52	103
53	239
54	62
55	145
56	40
57	82
58	22
59	8
60	9
61	6
62	15
63	50
64	16
65	117
66	61
67	153
68	51
69	80
70	21
71	50
72	26
73	40
74	11
75	12
76	9
77	237
78	81
79	485
80	441
81	916
82	87
83	253
84	149
85	163
86	9
87	28
89	5
90	5
91	47
92	10
93	30
94	13
95	41
96	9
97	739
98	57
99	14
100	6
103	3
105	11
106	5
107	44
108	219
109	67
110	10
111	99
112	11
113	4
118	5
119	4
120	4
121	4
122	3
123	9
124	6
125	36
126	662
127	56
128	8
137	22
138	5
152	2
153	6
155	6
