Mass Spectrum: 2,4-Octadienoic acid, 7-hydroxy-6-methyl-, methyl ester, [R-[R*,S*-(E,E)]]-
Formula: C10H16O3
CAS: 86845-57-0
Molecular weight: 184
m/z	intensity
26	12
27	122
28	1
29	49
30	5
31	19
33	4
37	4
38	14
39	147
40	25
41	164
42	14
43	222
44	12
45	563
46	17
47	5
50	27
51	79
52	57
53	143
54	30
55	81
56	12
57	28
58	5
59	125
60	7
61	8
62	6
63	22
64	9
65	65
66	34
67	56
68	21
69	31
70	6
71	23
72	20
73	7
74	11
75	9
76	7
77	152
78	47
79	434
80	512
81	999
82	73
83	21
84	6
85	25
86	4
87	4
88	3
89	3
90	4
91	35
92	7
93	25
94	13
95	32
96	8
97	54
98	78
99	10
100	7
101	2
103	2
104	3
105	14
106	6
107	64
108	303
109	175
110	18
111	529
112	42
113	14
114	6
115	4
117	2
119	4
121	4
122	6
123	9
124	3
125	84
126	10
127	9
128	2
129	3
133	3
135	7
136	3
137	33
138	5
139	23
140	844
141	85
142	8
143	2
151	10
152	7
153	94
154	17
166	3
167	3
168	2
169	8
183	4
184	1
185	1
