Mass Spectrum: 6-Methyl-2,4-octadienoic acid, 7-(1-ethoxyethoxy)-, methyl ester
Formula: C14H24O4
CAS: 86845-54-7
Molecular weight: 256
m/z	intensity
26	15
27	95
28	8
29	92
30	6
31	70
38	4
39	61
40	11
41	84
42	13
43	151
44	92
45	638
46	31
47	5
50	8
51	28
52	20
53	56
54	11
55	40
56	10
57	11
59	69
60	4
61	5
63	9
64	4
65	37
66	16
67	33
68	10
69	17
71	144
72	66
73	999
74	63
75	6
77	89
78	38
79	153
80	107
81	175
82	17
83	6
85	8
86	3
87	8
89	4
91	92
92	20
93	54
94	13
95	21
96	7
97	14
98	17
99	4
103	5
104	8
105	23
106	11
107	259
108	75
109	38
110	6
111	113
112	10
113	8
115	4
117	28
118	4
119	7
121	9
122	3
123	10
125	25
126	6
128	5
129	5
131	4
133	4
135	43
136	8
137	13
138	8
140	354
141	38
142	5
151	10
152	6
153	18
154	8
155	8
156	8
157	3
166	11
167	92
168	17
169	11
170	5
171	6
178	5
181	8
195	3
210	13
211	7
256	2
