Mass Spectrum: 4-Ethenylhexahydro-4,7a-dimethyl-2(3H)-benzofuranone,[3ar*-(3a .alpha.,4.alpha.,7a .beta.)]-
Formula: C12H18O2
CAS: 86852-65-5
Molecular weight: 194
m/z	intensity
41	429
42	121
43	842
44	189
47	7
50	54
51	94
52	74
53	361
54	74
55	284
58	27
60	47
62	47
63	27
65	132
66	44
67	598
68	304
69	38
71	6
75	53
77	218
78	82
79	676
80	141
81	999
82	179
83	35
84	54
85	93
91	200
92	85
93	774
94	372
95	283
96	48
97	16
98	67
104	49
105	92
106	82
107	304
108	666
109	343
110	171
118	74
119	114
120	91
121	131
123	313
124	275
133	141
134	79
135	232
136	370
137	293
138	49
149	63
150	53
151	111
152	131
153	73
161	157
166	100
176	129
177	44
179	264
180	25
194	63
