Mass Spectrum: Tetrakis(methylsulfonyl)hydrazine
Formula: C4H12N2O8S4
CAS: 86869-68-3
Molecular weight: 344
m/z	intensity
29	20
45	30
48	50
63	170
64	40
65	40
79	999
80	40
81	120
94	50
111	20
143	180
158	60
175	10
