Mass Spectrum: 3-Octene, 2,2-dimethyl-
Formula: C10H20
CAS: 86869-76-3
Molecular weight: 140
m/z	intensity
26	6
27	118
28	9
29	126
30	4
36	4
38	5
39	122
40	21
41	438
42	48
43	136
44	8
50	6
51	20
52	10
53	67
54	21
55	724
56	88
57	214
58	10
63	5
65	19
66	10
67	77
68	20
69	999
70	242
71	32
77	25
78	6
79	26
80	5
81	51
82	38
83	922
84	214
85	26
91	17
92	4
93	10
95	21
96	19
97	206
98	50
99	5
105	9
107	5
109	9
111	14
112	3
125	39
126	5
140	96
141	11
142	1
