Mass Spectrum: 1,3-Di-morpholin-4-yl-2-phenyl-prop-2-en-1-thion
Formula: C17H22N2O2S
CAS: 86867-31-4
Molecular weight: 318
m/z	intensity
12	8
13	5
15	252
16	12
17	7
18	40
19	64
26	84
27	530
28	999
29	510
30	202
31	131
32	19
33	5
35	16
37	4
38	13
39	93
40	30
41	232
42	310
43	236
44	138
45	515
46	28
47	28
48	5
49	3
50	29
51	84
52	37
53	23
54	181
55	169
56	198
57	98
58	62
59	67
60	79
61	31
62	19
63	57
64	14
65	41
66	16
67	18
68	25
69	91
70	55
71	52
72	68
73	20
74	22
75	34
76	50
77	177
78	49
79	15
80	19
81	8
82	15
83	13
84	38
85	35
86	168
88	30
89	127
90	37
91	137
92	30
93	19
94	16
95	9
96	9
97	7
98	28
99	11
100	66
101	37
102	128
103	166
104	50
105	20
106	7
107	15
108	11
109	6
110	7
111	4
112	11
113	14
115	268
116	87
117	64
118	14
119	7
121	64
122	20
123	9
124	14
125	5
126	11
127	43
128	150
129	92
130	115
131	27
132	16
133	25
134	50
135	20
136	7
137	3
139	6
140	15
141	35
142	42
143	82
144	36
145	36
146	19
147	127
148	79
149	19
150	6
151	3
152	4
153	25
154	29
155	52
156	52
157	21
158	25
159	30
160	39
161	25
162	16
163	5
166	3
167	13
168	53
169	74
170	85
171	41
172	27
173	32
174	57
175	42
176	17
177	5
180	3
181	6
182	7
183	8
184	8
185	10
186	30
187	21
188	38
189	11
190	4
195	4
196	4
198	88
199	247
200	110
201	42
202	27
203	7
204	5
209	2
211	3
212	6
213	7
214	8
215	5
216	2
218	2
219	2
224	3
225	2
226	1
227	5
228	2
230	7
232	274
233	58
234	20
235	3
239	2
241	2
255	1
259	1
273	3
285	168
286	32
287	4
318	62
319	14
320	4
