Mass Spectrum: Benzene, (1-methyl-2-propenyl-3-ol)
Formula: C10H12O
CAS: 868831-73-6
Molecular weight: 148
m/z	intensity
29	106
31	459
32	5
33	1
37	11
38	75
39	392
40	65
41	143
42	30
43	52
44	10
45	9
46	1
50	252
51	479
52	119
53	45
55	128
56	5
57	20
58	17
59	2
61	23
62	83
63	206
64	64
65	202
66	17
67	3
69	27
70	10
71	8
72	2
74	104
75	85
76	127
77	559
78	999
79	203
80	12
81	1
82	1
85	8
86	16
87	21
89	123
91	780
92	77
93	5
94	2
95	1
97	2
98	9
99	3
102	206
103	489
104	143
105	332
106	232
107	42
108	5
109	1
110	1
111	1
113	9
115	773
116	182
117	697
118	554
119	107
120	30
121	3
126	5
127	29
128	61
129	114
130	170
131	33
133	460
134	38
135	3
145	7
148	729
149	61
150	4
