Mass Spectrum: 1-Chloro-2,3-diacetoxypropane
Formula: C7H11ClO4
CAS: 869-50-1
Molecular weight: 194
m/z	intensity
14	2
15	18
26	2
27	10
28	4
29	10
30	1
31	4
37	1
38	2
39	14
40	2
41	9
42	32
43	999
44	25
45	5
48	1
49	12
50	2
51	4
57	6
58	1
60	1
61	8
62	3
63	2
64	1
73	33
74	14
75	12
76	1
77	4
79	1
86	280
87	15
88	5
91	2
92	3
93	1
99	96
100	5
101	5
103	161
105	1
116	150
117	11
118	1
121	47
122	2
123	16
124	1
134	24
135	3
136	8
137	1
145	31
146	2
151	2
152	1
153	1
164	4
166	1
