Mass Spectrum: N-Cyclopropyl-11-(2-hexyl-5-hydroxyphenoxy)undecanamide
Formula: C26H43NO3
CAS: 869376-90-9
Molecular weight: 417
m/z	intensity
38	1
39	15
40	2
41	108
42	16
43	85
44	2
45	1
50	1
51	3
52	2
53	12
54	10
55	200
56	123
57	268
58	224
59	11
60	1
63	1
64	1
65	10
66	9
67	52
68	8
69	91
70	35
71	12
72	2
74	1
75	1
76	1
77	26
78	7
79	20
80	5
81	61
82	9
83	53
84	29
85	10
86	2
87	1
88	1
89	1
90	1
91	14
92	2
93	14
94	14
95	58
96	5
97	22
98	10
99	18
100	2
101	2
102	1
103	4
104	1
105	9
106	4
107	56
108	8
109	13
110	18
111	23
112	22
113	3
114	1
115	3
116	1
117	2
118	1
119	3
120	4
121	17
122	9
123	999
124	95
125	34
126	6
127	2
128	1
129	1
131	3
132	1
133	3
134	3
135	14
136	21
137	80
138	10
139	2
140	2
141	1
142	1
143	1
144	1
145	3
146	1
147	8
148	4
149	81
150	18
151	12
152	4
153	1
154	2
155	1
157	1
158	1
159	1
160	1
161	7
162	4
163	64
164	10
165	8
166	2
167	11
168	3
169	1
173	1
174	1
175	4
176	3
177	18
178	5
179	4
180	2
181	2
182	1
183	1
184	3
185	1
186	1
187	2
188	1
189	10
190	3
191	9
192	8
193	15
194	187
195	37
196	5
197	1
198	1
201	1
202	1
203	4
204	1
205	9
206	3
210	1
211	1
215	1
216	3
217	3
218	1
219	8
220	2
221	1
222	4
223	1
224	33
225	5
226	4
227	1
229	1
230	1
231	2
232	1
233	12
234	8
235	2
236	1
237	1
239	1
240	1
241	1
242	1
245	1
246	1
247	9
248	3
250	1
251	1
252	1
259	1
260	1
261	389
262	73
263	10
264	1
266	1
270	1
271	6
272	1
273	1
274	1
275	5
276	3
277	4
278	1
279	1
285	1
286	1
287	2
288	2
289	44
290	12
291	8
292	1
293	1
294	1
295	1
300	1
301	7
302	2
303	1
304	1
305	1
306	1
311	1
313	1
314	1
315	1
316	1
317	2
318	7
319	3
320	1
326	1
328	3
329	32
330	11
331	1
332	43
333	12
334	3
335	1
342	1
344	1
345	2
346	181
347	44
348	8
349	1
356	1
357	3
358	2
359	4
360	209
361	75
362	14
363	2
370	1
371	1
372	1
373	1
374	13
375	3
376	1
377	1
385	1
387	1
388	16
389	5
390	1
398	1
399	9
400	5
401	1
402	1
403	1
404	1
414	1
415	1
416	4
417	518
418	149
419	25
420	3
421	1
428	1
