Mass Spectrum: Cyclopentanol, 1-(methylenecyclopropyl)-
Formula: C9H14O
CAS: 86951-58-8
Molecular weight: 138
m/z	intensity
26	48
27	560
28	103
29	227
30	3
31	83
37	11
38	46
39	555
40	118
41	767
42	189
43	291
44	1
45	15
46	0
47	3
48	1
49	5
50	80
51	187
52	116
53	435
54	202
55	654
56	97
57	150
58	23
59	5
60	2
61	3
62	15
63	52
64	14
65	144
66	111
67	924
68	388
69	269
70	392
71	38
72	7
73	1
74	7
75	15
76	9
77	225
78	90
79	819
80	125
81	454
82	243
83	199
84	28
85	185
86	12
87	2
89	9
90	14
91	354
92	263
93	105
94	413
95	644
96	122
97	156
98	95
99	7
101	2
102	4
103	22
104	10
105	146
106	16
107	26
109	999
110	125
111	8
115	12
116	4
117	15
118	4
119	30
120	63
121	7
122	6
123	145
124	13
137	33
138	15
139	1
