Mass Spectrum: 3-Methyl-.beta.-methyl-.beta.-nitrostyrene
Formula: C10H11NO2
CAS: 86969-37-1
Molecular weight: 177
m/z	intensity
39	180
51	121
63	122
64	110
65	283
77	230
79	154
80	208
89	144
91	924
92	97
103	127
106	91
115	999
116	562
117	137
119	317
127	137
128	315
129	330
130	193
131	122
149	112
160	122
177	303
178	35
