Mass Spectrum: Silane, (2-hexyl-1-cyclopenten-1-yl)trimethyl-
Formula: C14H28Si
CAS: 86994-24-3
Molecular weight: 224
m/z	intensity
26	0
27	13
29	28
30	0
31	10
33	0
39	7
40	0
41	40
42	5
43	54
44	10
45	60
46	3
47	2
51	1
52	1
53	8
54	2
55	23
56	2
57	8
58	13
59	254
60	19
61	8
65	4
66	2
67	19
68	3
69	18
70	3
71	14
72	13
73	999
74	79
75	33
76	1
77	13
78	8
79	48
80	116
81	27
82	4
83	24
84	2
85	26
86	5
87	11
88	0
89	0
91	16
92	3
93	54
94	50
95	34
96	5
97	25
98	3
99	26
100	2
101	4
103	0
105	6
106	1
107	26
108	10
109	20
110	2
111	16
112	1
113	9
114	0
115	3
116	0
117	0
119	3
121	27
122	4
123	15
124	1
125	32
126	3
127	10
128	1
129	1
131	0
133	1
134	0
135	23
136	3
137	26
138	17
139	59
140	9
141	11
142	1
143	0
145	0
147	2
148	0
149	20
150	41
151	14
152	1
153	17
154	430
155	61
156	18
157	1
163	1
164	0
165	2
166	0
167	17
168	3
177	0
181	5
182	1
183	0
193	0
195	0
205	0
207	2
208	0
209	60
210	11
211	2
224	40
225	8
226	1
