Mass Spectrum: (R,R)-Tartaric acid
Formula: C4H6O6
CAS: 87-69-4
Molecular weight: 150
m/z	intensity
18	2
19	12
26	3
27	1
29	160
30	70
31	121
35	5
36	41
37	1
38	15
41	18
42	120
43	115
44	62
45	155
46	14
47	18
49	35
53	7
55	6
56	6
57	6
58	418
59	243
60	80
61	38
69	97
70	238
71	49
72	2
73	8
75	28
76	999
77	194
78	11
79	3
80	4
81	2
82	4
85	1
87	24
88	92
89	6
105	163
106	5
114	2
132	2
150	1
