Mass Spectrum: Hexamethonium iodide
Formula: C12H30I2N2
CAS: 870-62-2
Molecular weight: 456
m/z	intensity
12	1
13	3
14	9
15	192
16	2
26	4
27	25
28	33
29	29
30	58
31	3
36	3
38	3
39	24
40	9
41	71
42	129
43	47
44	71
45	29
46	10
50	2
51	3
52	3
53	8
54	9
55	52
56	20
57	47
58	999
59	124
60	4
63	9
64	3
65	3
66	2
67	10
68	8
69	8
70	30
71	24
72	6
73	2
77	3
78	3
79	5
80	3
81	12
82	11
83	21
84	86
85	9
86	3
91	2
93	2
94	4
95	3
96	8
97	6
98	16
99	4
100	15
101	2
105	1
106	1
107	1
108	3
109	3
110	9
111	6
112	91
113	25
114	34
115	4
119	1
120	2
121	1
122	4
123	2
124	7
125	4
126	110
127	180
128	93
129	6
134	1
136	2
138	5
139	17
140	15
141	66
142	523
143	6
148	1
150	2
152	4
154	2
155	2
157	9
158	1
165	1
166	2
168	4
169	2
170	1
171	32
172	11
173	1
