Mass Spectrum: Cyclohexanemethanamine, n-propyl-
Formula: C10H21N
CAS: 87033-85-0
Molecular weight: 155
m/z	intensity
33	4
34	4
39	50
40	90
41	132
42	36
43	94
44	161
45	4
48	0
50	1
51	3
52	1
53	14
54	12
55	104
56	23
57	5
58	17
60	1
64	0
65	3
67	20
68	8
69	8
70	18
72	999
73	40
74	0
77	4
79	2
80	1
81	2
82	3
83	2
84	1
85	0
86	0
95	7
96	0
97	11
98	6
104	0
105	0
112	2
114	4
124	3
126	82
127	5
140	11
141	0
154	4
155	52
156	4
