Mass Spectrum: 3-Hydroxy-4,5(R)-dimethyl-2(5H)-furanone
Formula: C6H8O3
CAS: 87068-70-0
Molecular weight: 128
m/z	intensity
43	560
55	330
57	190
72	220
83	999
85	210
100	100
113	80
127	380
128	260
129	40
