Mass Spectrum: Anthraegostatrine
Formula: C28H44
CAS: 87069-92-9
Molecular weight: 380
m/z	intensity
41	245
43	999
47	5
49	17
51	7
53	21
55	214
57	91
58	0
65	7
67	24
69	44
71	73
72	1
77	10
79	11
81	16
83	33
84	3
85	15
86	1
88	0
89	1
91	15
93	10
95	15
97	16
98	0
102	0
103	2
105	12
107	5
109	3
111	4
115	16
116	4
117	7
118	0
119	3
121	2
123	2
125	2
127	6
128	22
129	18
131	9
132	0
133	1
135	0
137	1
139	0
141	30
142	27
143	40
144	11
145	11
146	1
151	0
152	8
153	22
154	16
155	70
156	20
157	47
158	5
159	57
160	7
165	29
166	13
167	30
168	17
169	49
170	12
171	14
172	6
173	6
174	0
176	0
177	0
178	10
179	14
180	6
181	21
182	13
183	43
184	17
185	55
186	9
187	1
189	1
190	0
191	3
192	2
193	8
194	3
195	31
196	9
197	95
198	50
199	134
200	15
201	2
203	1
204	0
205	3
206	1
207	5
209	16
211	208
212	65
213	27
214	5
215	1
219	1
221	2
222	1
223	12
224	2
225	47
226	111
227	22
228	2
235	2
236	2
237	22
238	7
239	10
240	1
249	0
251	6
252	1
253	41
254	9
255	1
265	3
266	1
267	1
269	0
279	1
280	0
281	2
294	1
295	0
307	1
308	1
337	0
338	2
364	0
365	20
366	7
367	0
378	3
379	9
380	232
381	63
382	7
383	1
