Mass Spectrum: 1,4-Methano-1H-indene, octahydro-1,7a-dimethyl-4-(1-methylethenyl)-, [1S-(1.alpha.,3a.beta.,4.alpha.,7a.beta.)]-
Formula: C15H24
CAS: 87064-18-4
Molecular weight: 204
m/z	intensity
26	2
27	76
29	123
30	2
38	2
39	102
40	28
41	322
42	19
43	92
44	2
50	2
51	29
52	12
53	115
54	12
55	226
56	19
57	25
58	2
63	7
64	4
65	56
66	16
67	156
68	17
69	90
70	8
71	6
72	2
73	2
74	1
76	3
77	138
78	29
79	232
80	41
81	235
82	30
83	38
84	4
85	3
87	3
89	4
90	2
91	255
92	49
93	377
94	283
95	999
96	218
97	28
98	3
102	3
103	19
104	10
105	344
106	85
107	388
108	333
109	149
110	42
111	8
112	3
115	23
116	12
117	35
118	12
119	257
120	242
121	271
122	135
123	35
124	6
125	2
127	2
128	7
129	8
130	6
131	27
132	8
133	218
134	107
135	147
136	84
137	16
138	6
142	1
145	25
146	9
147	142
148	95
149	57
150	14
151	2
152	1
159	6
160	139
161	713
162	129
163	87
164	10
173	1
175	74
176	52
177	6
178	1
189	193
190	25
191	2
204	469
205	80
206	15
