Mass Spectrum: 1,2-cis-1,5-trans-2,5-dihydroxy-4-methyl-1-(1-hydroxy-1-isopropyl)cyclohex-3-ene
Formula: C10H18O3
CAS: 87096-70-6
Molecular weight: 186
m/z	intensity
51	60
52	30
53	130
54	40
55	190
56	40
57	70
58	40
59	760
60	40
61	20
62	10
65	70
66	100
67	310
68	70
69	280
70	270
71	400
72	30
75	20
77	170
78	20
79	100
80	40
81	190
82	50
83	60
84	110
85	80
87	10
91	130
92	60
93	100
94	40
95	999
96	70
97	30
98	10
99	30
100	90
107	60
108	60
109	420
110	820
111	100
112	20
122	10
123	10
124	10
125	40
133	20
135	50
150	10
153	60
168	20
