Mass Spectrum: Silane, octyl-
Formula: C8H20Si
CAS: 871-92-1
Molecular weight: 144
m/z	intensity
27	30
28	10
29	63
30	3
31	53
39	67
40	6
41	169
42	35
43	160
44	26
45	83
53	38
54	15
55	132
56	54
57	125
58	93
59	999
60	77
61	36
65	11
67	24
69	41
70	31
71	88
72	30
73	70
83	32
84	22
85	76
86	52
87	45
88	21
93	12
97	38
99	174
100	17
101	16
112	1
113	36
114	50
115	22
116	47
143	9
