Mass Spectrum: Silane, trichloroheptyl-
Formula: C7H15Cl3Si
CAS: 871-41-0
Molecular weight: 232
m/z	intensity
15	5
26	18
27	235
28	60
29	229
30	4
38	10
39	251
40	46
41	568
42	205
43	879
44	33
49	6
50	5
51	16
52	7
53	48
54	26
55	250
56	119
57	501
58	23
63	115
64	8
65	53
66	5
67	18
68	6
69	84
70	139
71	999
72	58
77	6
79	4
85	14
98	80
99	76
100	57
101	47
102	11
103	14
105	2
112	32
113	31
114	24
115	25
116	8
117	43
119	14
123	5
125	56
126	26
127	43
128	17
129	13
130	1
131	32
133	793
134	47
135	773
136	42
137	275
138	27
139	138
140	30
141	71
142	13
143	13
151	4
153	90
154	17
155	61
156	9
157	11
161	190
162	15
163	193
164	14
165	65
167	90
168	11
169	53
170	6
171	9
174	26
175	209
176	45
177	215
178	25
179	73
180	4
181	11
188	11
189	117
190	23
191	118
192	14
193	38
196	7
202	9
203	74
204	17
205	75
206	10
207	25
232	32
234	31
236	10
