Mass Spectrum: Formamide, N-butyl-
Formula: C5H11NO
CAS: 871-71-6
Molecular weight: 101
m/z	intensity
12	3
13	0
14	3
15	29
16	2
17	7
18	75
25	0
26	21
27	176
28	330
29	153
30	999
31	17
32	1
36	0
37	2
38	7
39	103
40	19
41	219
42	71
43	76
44	103
45	10
46	226
47	3
48	0
49	0
50	2
51	5
52	5
53	12
54	12
55	36
56	96
57	12
58	850
59	415
60	19
70	7
72	234
73	25
84	10
86	25
98	5
99	1
100	37
101	50
102	22
