Mass Spectrum: 3,5-Methanocyclopentapyrazole, 3,3a,4,5,6,6a-hexahydro-3a,4,4-trimethyl-
Formula: C10H16N2
CAS: 87143-58-6
Molecular weight: 164
m/z	intensity
25	2
26	18
27	248
28	29
29	114
30	3
37	2
38	11
39	222
40	36
41	279
42	20
43	99
44	3
45	0
49	1
50	14
51	52
52	27
53	91
54	15
55	72
56	5
57	11
58	5
59	2
60	0
61	0
62	3
63	13
64	5
65	49
66	24
67	70
68	36
69	10
70	4
71	0
72	1
73	0
74	1
75	3
76	2
77	208
78	38
79	181
80	98
81	34
82	4
83	0
87	0
88	0
89	5
90	3
91	215
92	262
93	999
94	89
95	13
96	1
101	0
102	1
103	8
104	3
105	62
106	18
107	37
108	11
109	5
110	0
115	2
116	0
117	1
118	0
119	11
120	2
121	96
122	9
123	0
134	0
135	1
136	13
137	1
149	0
164	1
165	2
166	0
