Mass Spectrum: 1,1-Dimethylethyloxycarbonic acid 4-ethenylphenyl ester
Formula: C13H16O3
CAS: 87188-51-0
Molecular weight: 220
m/z	intensity
41	89
57	999
58	34
65	12
77	80
103	89
120	651
121	86
133	9
161	22
220	9
