Mass Spectrum: 1-Undecene, 11-chloro-
Formula: C11H21Cl
CAS: 872-17-3
Molecular weight: 188
m/z	intensity
25	1
26	14
27	119
28	38
29	161
30	4
35	1
36	0
37	3
38	8
39	254
40	41
41	580
42	158
43	237
44	6
45	0
49	29
50	7
51	18
52	11
53	84
54	120
55	999
56	309
57	173
58	5
61	3
62	4
63	47
64	2
65	29
66	17
67	273
68	306
69	750
70	302
71	52
72	3
75	11
76	11
77	29
78	6
79	18
80	5
81	186
82	276
83	309
84	141
85	18
88	0
89	11
90	31
91	76
92	12
93	31
94	3
95	82
96	49
97	188
98	41
99	3
102	0
103	11
104	292
105	42
106	120
107	11
109	47
110	19
111	32
112	6
116	2
117	18
118	58
119	12
120	18
121	3
123	23
124	7
125	4
126	0
130	2
131	7
132	18
133	3
134	4
137	1
139	1
144	2
145	5
146	8
147	2
148	2
158	1
159	4
160	8
161	2
162	3
188	6
189	0
190	2
