Mass Spectrum: N-(3-Bromo-3-methyl-2-butylidene)isopropylamine
Formula: C8H16BrN
CAS: 87207-68-9
Molecular weight: 205
m/z	intensity
40	50
41	310
42	999
43	210
53	50
54	30
55	50
57	50
67	40
68	250
69	150
84	410
110	190
111	40
125	170
126	90
205	2
207	2
