Mass Spectrum: Benzyl (S)-(-)-tetrahydro-5-oxo-3-furanylcarbamate
Formula: C12H13NO4
CAS: 87219-29-2
Molecular weight: 235
m/z	intensity
33	0
34	0
35	0
36	0
37	3
38	15
39	104
40	27
41	68
42	68
43	62
44	33
45	6
46	6
47	1
48	1
49	2
50	27
51	71
52	22
53	8
54	5
55	12
56	12
57	16
58	18
59	5
60	2
61	2
62	12
63	45
64	22
65	195
66	11
67	1
68	7
69	22
70	21
71	2
72	1
73	1
74	4
75	4
77	96
78	27
79	123
80	12
81	1
82	6
83	14
84	8
85	26
86	26
87	11
89	85
90	142
91	999
92	90
93	3
94	0
95	0
96	2
97	1
98	2
99	3
100	3
101	19
102	9
103	1
104	7
105	53
106	32
107	257
108	413
109	32
110	2
111	1
112	1
113	0
114	1
115	0
116	1
117	1
118	4
119	1
120	1
121	7
122	2
123	0
125	0
126	6
127	1
128	2
129	1
130	10
131	2
132	11
133	15
134	3
135	1
137	0
144	2
145	0
146	1
147	0
148	4
149	2
150	2
151	1
152	0
158	0
159	0
160	0
161	0
162	1
163	0
167	0
173	0
174	1
175	1
176	4
177	1
178	0
180	0
189	0
190	1
191	0
192	0
204	0
206	8
207	1
216	0
231	0
235	214
236	26
237	3
238	0
