Mass Spectrum: 5,5-Diethyl-2-(methylthio)-4,6(1H,5H)-pyrimidinedione
Formula: C9H14N2O2S
CAS: 87216-02-2
Molecular weight: 214
m/z	intensity
34	56
36	39
37	25
38	71
39	542
40	507
41	836
42	203
44	186
45	71
47	115
48	31
49	23
51	69
52	61
53	244
55	999
57	45
58	13
59	9
60	5
61	5
62	4
63	12
65	35
67	96
69	465
70	178
71	26
72	10
74	43
75	36
76	24
77	18
78	24
80	24
81	17
83	783
84	54
85	70
87	6
91	6
92	1
93	18
94	28
95	17
96	14
98	780
99	26
100	5
101	3
103	7
104	1
105	19
106	2
107	1
108	5
109	2
110	4
112	153
113	6
115	4
117	316
118	14
119	9
121	4
126	8
127	5
128	2
129	1
135	1
138	1
139	8
141	478
142	18
143	5
153	5
155	180
156	539
157	27
158	4
170	5
171	8
185	3
186	12
199	5
214	93
215	9
216	4
