Mass Spectrum: Quinuclidine-2-carboxylic acid, 2,3-dehydro-3-amino-, ethyl ester
Formula: C10H16N2O2
CAS: 87216-04-4
Molecular weight: 196
m/z	intensity
33	8
34	18
36	2
38	3
39	430
40	35
41	999
42	793
43	211
44	134
45	60
46	13
47	13
48	3
50	32
51	77
52	118
53	245
54	643
55	544
56	145
57	94
58	17
59	120
60	11
61	15
62	8
63	17
64	20
65	86
66	170
67	424
68	459
69	349
70	64
71	28
72	8
73	5
74	5
75	10
76	16
77	60
78	61
79	65
80	160
81	207
82	663
83	169
84	77
85	49
86	13
87	4
88	3
89	4
90	4
91	41
92	49
93	248
94	454
95	479
96	706
97	214
98	21
99	7
100	4
101	2
102	1
103	5
104	16
105	16
106	57
107	49
108	85
109	269
110	47
111	22
112	36
113	19
114	4
115	6
116	11
117	6
119	19
121	750
122	347
123	294
124	199
125	30
126	20
127	9
128	7
129	4
131	1
133	4
134	9
135	67
136	10
137	66
138	15
139	69
140	42
141	50
142	8
143	2
144	1
145	0
147	2
148	3
149	45
150	36
151	167
152	756
153	80
154	22
155	29
156	2
157	1
163	0
165	17
167	618
168	447
169	50
170	6
171	17
172	1
178	0
179	1
181	4
182	0
189	0
191	0
192	0
193	4
194	11
196	756
197	91
198	8
