Mass Spectrum: 1,2-Bis(trimethylsilyl)-4-methylcyclohexa-1,4-diene
Formula: C13H26Si2
CAS: 87226-80-0
Molecular weight: 238
m/z	intensity
29	9
31	11
43	74
44	18
45	160
46	9
53	13
55	16
57	9
58	100
59	94
67	26
68	91
69	20
72	29
73	999
74	91
75	40
81	11
83	42
91	13
93	11
95	18
97	40
105	16
107	13
109	18
111	7
115	7
119	16
121	27
131	16
133	16
135	282
136	36
137	13
141	11
145	11
149	513
150	256
151	51
152	11
155	256
156	48
157	22
164	104
165	42
166	9
207	7
223	69
224	18
225	4
238	25
