Mass Spectrum: 2,2-Dimethylpropionic acid, 3-phenylpropyl ester
Formula: C14H20O2
CAS: 87228-44-2
Molecular weight: 220
m/z	intensity
26	6
27	39
28	3
29	75
31	4
36	1
37	2
38	9
39	97
40	21
41	181
42	21
43	9
44	18
45	6
50	21
51	55
52	21
53	8
54	1
55	18
56	12
57	388
58	16
59	9
61	3
62	8
63	25
64	6
65	82
66	6
69	15
75	8
76	8
77	65
78	41
79	29
85	15
87	6
89	21
90	14
91	409
92	44
93	3
102	6
103	45
104	55
105	36
106	3
107	6
115	29
116	89
117	381
118	999
119	115
120	2
