Mass Spectrum: Tricyclo[6.2.0.0(3,6)]dec-1(8)-en-2,7-dione
Formula: C10H10O2
CAS: 87258-04-6
Molecular weight: 162
m/z	intensity
28	550
51	170
52	560
53	180
54	100
55	150
78	140
79	150
80	400
91	210
106	150
108	999
134	50
162	550
