Mass Spectrum: (E)-2-Methyl-5-((1S,2R,4R)-2-methyl-3-methylenebicyclo[2.2.1]heptan-2-yl)pent-2-enoic acid
Formula: C15H22O2
CAS: 872880-61-0
Molecular weight: 234
m/z	intensity
18	9
26	2
27	62
28	13
29	47
30	3
31	8
37	1
39	123
40	38
41	250
42	13
43	114
44	15
45	35
47	1
49	2
50	9
51	30
52	30
53	125
54	24
55	139
56	9
59	5
60	18
62	2
63	14
64	11
65	115
66	52
67	201
69	54
72	5
73	20
74	23
75	4
76	3
77	291
78	62
79	558
80	80
81	87
85	7
87	13
89	10
90	4
91	324
92	85
93	650
94	999
95	170
96	12
98	6
99	12
100	52
101	10
102	6
103	17
104	6
105	122
106	47
107	189
108	40
109	35
110	26
111	25
112	18
113	8
115	19
116	5
117	16
118	20
119	76
120	21
121	195
122	247
123	24
125	22
126	4
127	5
128	13
129	11
131	30
132	30
133	68
134	37
135	196
136	33
137	25
138	58
139	42
140	8
141	7
144	3
145	32
147	56
148	35
149	12
150	9
151	13
152	8
157	4
160	103
161	87
162	4
163	9
164	7
165	17
166	11
167	10
168	3
169	3
170	2
173	12
174	3
178	6
180	15
181	3
182	3
189	47
190	2
201	14
204	2
205	16
206	13
216	34
217	5
234	49
235	4
