Mass Spectrum: 4,8-Dimethylnona-3,8-dien-2-one
Formula: C11H18O
CAS: 872858-42-9
Molecular weight: 166
m/z	intensity
26	3
27	68
28	14
29	38
38	6
39	129
40	21
41	621
42	30
43	267
44	6
45	4
50	7
51	20
52	11
53	71
54	23
55	49
56	4
57	6
59	7
63	6
64	2
65	19
66	8
67	62
68	21
69	999
70	53
71	6
77	25
78	6
79	24
80	6
81	57
82	57
83	477
84	28
85	7
86	8
91	22
92	3
93	22
94	15
95	30
96	6
97	7
98	204
99	14
103	2
105	9
106	4
107	21
108	105
109	50
110	7
111	11
115	2
119	2
122	5
123	181
124	20
125	3
133	6
137	4
138	14
151	57
152	7
166	91
167	12
