Mass Spectrum: Tris(methylsulfonyl)amine
Formula: C3H9NO6S3
CAS: 87293-08-1
Molecular weight: 251
m/z	intensity
46	50
48	50
63	80
64	40
78	70
79	999
95	100
142	290
157	330
158	160
172	330
173	40
236	60
251	50
