Mass Spectrum: Dimethyl diglycolcarbonate
Formula: C8H14O7
CAS: 87292-23-7
Molecular weight: 222
m/z	intensity
14	20
15	210
19	40
26	40
27	140
28	180
29	500
30	70
31	420
32	20
33	40
41	30
42	40
43	200
44	320
45	999
46	20
57	20
58	130
59	260
60	20
73	20
75	50
77	120
88	30
90	40
103	520
104	150
133	20
134	90
