Mass Spectrum: Methyl allyl diglycolcarbonate
Formula: C10H16O7
CAS: 87292-24-8
Molecular weight: 248
m/z	intensity
27	160
28	150
29	220
30	80
31	140
38	60
39	70
41	680
42	80
43	110
45	130
57	40
58	70
59	210
60	60
70	70
71	70
73	90
77	60
89	130
103	999
104	80
105	100
129	260
