Mass Spectrum: Ramipril
Formula: C23H32N2O5
CAS: 87333-19-5
Molecular weight: 416
m/z	intensity
40	10
41	81
42	49
43	20
44	112
45	55
46	2
50	3
51	13
52	7
53	38
54	113
55	156
56	222
57	18
58	4
60	1
61	1
62	1
63	8
64	3
65	86
66	22
67	248
68	103
69	97
70	93
71	17
72	7
73	21
74	3
75	1
76	2
77	45
78	24
79	58
80	78
81	76
82	71
83	53
84	9
85	5
86	2
88	2
89	14
91	999
92	87
93	45
94	29
95	17
96	24
97	7
98	22
99	13
100	48
101	26
102	10
103	21
104	46
105	37
106	16
107	13
108	57
109	43
110	449
111	39
112	6
113	6
114	2
115	98
116	33
117	421
118	49
119	9
120	5
121	10
122	9
123	6
124	9
125	8
126	6
127	13
128	21
129	41
130	20
131	7
132	14
133	18
134	16
135	10
136	29
137	187
138	47
139	9
140	5
141	5
142	10
143	8
144	21
145	13
146	5
147	2
148	6
149	11
150	5
151	13
152	3
153	2
154	6
155	1
156	1
157	10
158	11
160	225
161	38
162	9
163	7
164	12
165	165
166	152
167	32
168	5
169	1
170	1
171	1
175	3
176	19
177	14
178	4
179	65
180	17
181	20
182	3
183	1
184	1
185	1
186	2
187	1
188	5
189	5
190	7
191	14
192	53
193	153
194	21
195	2
196	1
197	1
203	4
204	3
205	24
206	11
207	72
208	129
209	227
210	29
211	3
213	1
214	1
215	1
218	3
219	4
220	33
221	9
222	8
223	1
224	1
226	2
231	1
232	5
233	24
234	32
235	8
237	7
238	1
239	1
244	1
246	17
248	722
249	108
250	13
251	2
253	1
254	1
257	1
260	38
261	13
262	2
265	4
266	5
267	1
268	1
269	2
279	4
287	7
288	1
292	13
294	621
295	114
296	15
297	194
298	42
299	5
307	2
323	1
324	6
325	41
326	10
327	1
329	1
341	1
352	3
353	24
354	5
355	1
369	3
398	75
399	19
400	3
