Mass Spectrum: Dimethyl 3-trimethylsilyloxyhept-2-enedioate
Formula: C12H22O5Si
CAS: 87343-11-1
Molecular weight: 274
m/z	intensity
53	36
55	246
56	28
57	42
58	44
59	448
60	29
69	245
70	18
72	57
73	999
74	114
75	360
76	16
77	53
78	17
79	120
81	70
82	21
83	54
85	17
87	37
89	744
90	53
91	81
95	14
97	245
98	24
99	6
100	17
101	56
103	18
104	30
105	419
106	36
107	77
108	22
109	9
111	130
112	16
113	28
114	9
115	94
116	53
125	308
126	46
127	40
128	10
129	13
130	5
131	8
135	18
139	21
141	30
143	18
146	110
147	10
153	17
155	33
159	25
169	457
170	81
171	48
173	385
174	41
175	9
181	26
185	162
186	29
197	13
201	53
225	108
226	21
242	255
243	293
244	28
259	409
260	34
261	17
273	64
274	62
275	10
