Mass Spectrum: Tetradecanedioic acid, 3-oxo-, dimethyl ester
Formula: C16H28O5
CAS: 87342-99-2
Molecular weight: 300
m/z	intensity
34	1
35	0
37	0
38	3
39	96
40	35
41	462
42	98
43	647
44	65
45	54
46	1
47	5
48	1
49	3
50	1
51	6
52	3
53	40
54	41
55	610
56	74
57	166
58	58
59	307
60	11
61	4
62	0
63	2
64	1
65	8
66	6
67	131
68	56
69	515
70	69
71	97
72	15
73	65
74	712
75	56
76	4
77	8
78	5
79	49
80	36
81	148
82	52
83	314
84	542
85	83
86	16
87	277
88	40
89	5
90	0
91	17
92	10
93	71
94	38
95	99
96	85
97	281
98	999
99	89
100	12
101	102
102	12
103	2
104	1
105	14
106	10
107	52
108	33
109	68
110	56
111	202
112	358
113	42
114	15
115	45
116	382
117	61
118	5
119	16
120	8
121	27
122	14
123	39
124	38
125	70
126	62
127	14
128	14
129	72
130	40
131	10
132	4
133	17
134	44
135	242
136	31
137	22
138	40
139	28
140	14
141	14
142	39
143	61
144	14
145	3
146	1
147	21
148	23
149	90
150	31
151	26
152	148
153	472
154	61
155	11
156	4
157	18
158	10
159	13
160	2
161	2
162	1
163	3
164	3
165	13
166	75
167	66
168	12
169	7
170	67
171	24
172	24
173	5
174	1
175	6
176	14
177	17
178	2
179	3
180	3
181	3
182	4
183	7
184	36
185	375
186	47
187	4
188	0
189	1
190	3
191	3
192	2
193	9
194	75
195	32
196	6
197	4
198	11
199	9
200	6
201	1
202	0
203	0
204	0
205	0
206	0
207	2
208	11
209	9
210	3
211	15
212	2
213	3
214	1
215	0
217	0
218	5
219	1
220	0
221	0
222	5
223	1
224	2
225	3
226	29
227	372
228	56
229	6
230	1
231	0
232	1
233	0
235	1
236	4
237	17
238	3
239	1
240	4
241	2
242	5
243	1
244	0
246	0
249	0
250	27
251	4
252	1
253	0
254	1
255	0
256	0
257	0
258	2
259	1
260	0
265	0
266	0
267	1
268	14
269	32
270	5
271	0
272	0
273	0
274	0
275	0
276	0
277	0
279	0
280	0
281	0
282	1
283	8
284	1
285	0
295	0
300	5
301	0
