Mass Spectrum: 3-Oxa-8-azaspiro[5.5]undecane, 8-benzyl-2,2-dimethyl-
Formula: C18H27NO
CAS: 87399-97-1
Molecular weight: 273
m/z	intensity
33	2
35	18
36	69
38	33
39	50
40	36
41	112
42	85
43	114
44	61
45	2
50	4
51	13
52	7
53	29
54	16
55	47
56	19
57	12
58	17
59	19
60	0
62	2
63	11
65	93
67	62
68	20
69	15
70	7
71	2
72	3
74	1
75	1
76	3
77	19
78	7
79	22
80	11
81	21
82	9
83	5
84	7
85	3
86	1
89	29
91	999
92	71
93	13
94	13
95	25
96	25
97	12
98	5
99	1
103	8
104	25
105	11
106	9
107	7
108	9
109	12
110	21
111	4
112	1
113	0
115	1
116	3
117	13
118	20
119	12
120	41
121	12
122	8
123	10
124	25
125	5
126	3
127	1
128	2
129	4
130	3
132	44
134	891
135	73
136	5
137	5
138	7
139	1
140	1
141	1
142	0
143	1
144	4
146	110
147	73
148	10
149	0
150	1
151	2
152	2
153	0
154	1
155	0
156	1
157	0
158	3
160	33
161	4
162	0
164	1
165	1
166	3
167	1
168	0
169	0
170	0
172	10
173	3
174	4
175	0
182	53
183	6
184	2
186	76
187	17
188	9
189	1
196	22
197	3
198	1
200	11
202	7
203	0
204	0
212	0
214	9
215	2
216	3
217	12
218	1
228	1
229	0
230	2
231	0
242	0
243	0
244	3
245	0
256	1
258	45
259	7
260	0
269	0
270	1
272	46
273	139
274	27
275	2
