Mass Spectrum: 3-Oxa-8-azaspiro[5.5]undecane, 2,2-dimethyl-8-(2-propynyl)-
Formula: C14H23NO
CAS: 87399-75-5
Molecular weight: 221
m/z	intensity
35	14
36	87
37	6
38	35
39	105
40	45
41	135
42	109
43	149
44	54
45	4
46	1
48	0
50	0
51	9
52	7
53	50
54	35
55	66
56	28
57	42
58	27
59	22
60	3
61	1
63	2
65	27
66	27
67	125
68	102
69	30
70	24
71	17
72	130
73	7
74	1
75	3
76	1
77	28
78	8
79	42
80	49
81	71
82	999
83	78
84	22
85	16
86	4
87	0
89	0
90	2
91	19
92	8
93	29
94	176
95	81
96	65
97	30
98	15
99	2
100	1
101	0
103	5
104	4
105	7
106	15
107	15
108	62
109	31
110	38
111	11
112	6
113	2
115	2
117	4
118	24
119	7
120	35
121	13
122	38
123	16
124	33
125	10
126	5
127	3
128	1
130	1
131	3
132	6
133	8
134	215
135	38
136	39
137	23
138	12
139	3
140	3
141	3
142	1
144	1
145	2
146	4
147	3
148	20
149	8
150	19
151	5
152	8
153	2
154	2
155	2
156	0
158	0
159	1
160	2
162	17
163	5
164	13
165	87
166	35
167	3
168	4
169	0
170	2
171	5
172	1
174	1
175	1
176	11
177	1
178	13
179	1
180	1
181	16
182	35
183	5
184	1
185	0
188	1
190	5
191	5
192	11
193	2
194	0
196	73
197	10
198	1
199	0
201	2
203	0
204	0
205	0
206	97
207	16
208	1
209	0
210	7
211	22
212	3
214	1
216	0
217	0
219	1
220	31
221	156
222	27
223	2
224	0
