Mass Spectrum: 4-Carboxycyclohexanone
Formula: C7H10O3
CAS: 874-61-3
Molecular weight: 142
m/z	intensity
29	230
39	318
41	361
42	783
43	999
44	110
45	154
54	68
55	649
56	49
58	110
59	148
60	74
68	82
69	65
70	228
73	119
83	26
85	68
86	310
96	45
97	68
114	77
142	139
