Mass Spectrum: Benzonitrile, 4-(hydroxymethyl)-
Formula: C8H7NO
CAS: 874-89-5
Molecular weight: 133
m/z	intensity
26	25
27	69
28	28
29	93
30	27
31	74
33	1
35	1
37	61
38	63
39	156
40	19
41	12
42	9
43	7
45	6
46	3
48	4
49	19
50	219
51	251
52	87
53	24
54	3
55	10
56	3
57	9
58	9
60	7
61	43
62	77
63	131
64	77
65	28
66	22
67	7
68	3
70	5
71	3
72	7
73	18
74	62
75	143
76	181
77	392
78	123
79	28
80	4
81	4
82	7
83	4
84	9
85	11
86	19
87	25
88	38
89	158
90	142
91	35
94	3
95	3
96	2
97	3
98	3
99	10
100	7
102	132
103	88
104	999
105	230
106	56
107	18
108	2
109	4
110	3
111	4
114	23
115	39
116	202
117	211
118	34
119	5
120	4
121	3
126	1
128	3
130	114
131	82
132	337
133	240
134	35
135	4
137	1
