Mass Spectrum: Cyclobutanone, 2,2,3,4-tetramethyl-, cis-
Formula: C8H14O
CAS: 87481-00-3
Molecular weight: 126
m/z	intensity
41	270
42	390
43	10
55	510
56	90
70	999
71	60
83	60
98	20
111	20
126	90
127	10
