Mass Spectrum: 1,4-Bis(trimethylsilyl)-2,3,6,7-tetrathiacyclooctane
Formula: C10H24S4Si2
CAS: 87495-58-7
Molecular weight: 328
m/z	intensity
41	20
42	10
43	90
44	30
45	180
46	10
47	10
53	20
55	20
57	10
58	10
59	170
60	20
61	20
72	10
73	999
74	100
75	90
76	10
77	20
83	10
85	70
90	20
91	150
92	10
93	20
117	150
118	20
119	10
132	420
133	60
134	40
149	20
163	30
164	10
181	10
196	260
197	30
198	40
328	30
329	7
330	8
331	2
332	1
