Mass Spectrum: Quinoline, decahydro-1-methyl-, trans-
Formula: C10H19N
CAS: 875-63-8
Molecular weight: 153
m/z	intensity
39	30
41	50
42	90
53	20
54	20
55	30
67	40
68	20
70	30
79	20
81	20
82	40
84	20
96	80
97	90
110	999
124	30
152	40
153	100
154	10
