Mass Spectrum: 1-Butanol, 3-(1-ethoxyethoxy)-2-ethyl-
Formula: C10H22O3
CAS: 87519-07-1
Molecular weight: 190
m/z	intensity
25	6
26	35
27	199
28	23
29	190
30	28
31	342
38	5
39	84
40	20
41	303
42	84
43	406
44	202
45	639
46	94
49	5
51	8
53	30
54	23
55	333
56	999
57	104
58	9
59	31
65	6
67	23
68	7
69	42
70	123
71	45
72	123
73	108
77	5
79	6
81	8
82	15
83	258
84	24
85	21
86	6
87	21
88	17
89	201
90	10
91	10
95	7
97	12
98	9
99	19
100	55
101	38
107	5
109	6
113	7
114	11
115	51
116	28
117	11
126	6
127	6
128	15
129	159
130	13
137	11
141	12
142	11
143	64
144	17
145	5
155	5
156	19
157	72
158	7
171	11
172	16
190	4
191	2
