Mass Spectrum: Dodecanoic acid, 12-(4-methylphenylsulfonyloxy)-, methyl ester
Formula: C20H32O5S
CAS: 87521-75-3
Molecular weight: 384
m/z	intensity
26	2
27	85
28	39
29	210
30	9
31	50
38	2
39	105
40	19
41	562
42	125
43	506
44	62
45	64
46	15
50	10
51	22
52	9
53	51
54	137
55	999
56	155
57	410
58	25
59	176
60	72
61	70
62	9
63	31
64	13
65	197
66	26
67	228
68	212
69	656
70	121
71	197
72	18
73	94
74	735
75	85
76	14
77	43
78	14
79	67
80	43
81	293
82	199
83	691
84	399
85	146
86	15
87	418
88	48
89	54
90	77
91	927
92	121
93	75
94	48
95	264
96	246
97	547
98	643
99	96
100	13
101	77
102	10
103	2
104	10
105	31
106	8
107	111
108	100
109	132
110	145
111	186
112	182
113	51
114	33
115	68
116	18
117	7
118	2
119	26
120	9
121	51
122	19
123	102
124	64
125	83
126	45
127	124
128	35
129	60
130	13
131	8
132	3
133	22
134	14
135	28
136	41
137	75
138	152
139	129
140	19
141	27
142	7
143	71
144	12
145	11
146	2
147	25
148	6
151	37
152	100
153	41
154	36
155	327
156	34
157	39
158	15
159	6
160	1
161	17
162	25
163	205
164	30
165	13
166	6
167	14
168	5
169	17
170	4
171	18
172	141
173	314
174	34
175	18
176	4
177	8
178	5
179	25
180	72
181	541
182	74
183	17
184	3
185	13
186	2
187	6
188	2
189	2
190	1
191	5
192	3
193	6
194	9
195	5
196	3
197	35
198	5
199	10
200	19
201	17
202	3
203	3
204	4
205	9
206	2
207	6
208	8
209	5
210	4
211	6
212	23
213	108
214	15
215	3
216	1
217	5
218	3
219	4
220	5
221	4
222	5
223	8
224	2
226	4
227	1
228	8
229	3
230	2
231	2
232	1
233	1
234	1
235	2
236	19
237	10
238	3
239	5
240	1
241	3
242	8
243	7
244	1
245	0
246	2
247	3
248	1
249	2
250	3
251	2
252	4
253	6
254	2
255	11
256	7
257	8
258	2
259	2
260	4
261	1
262	1
263	1
264	4
265	1
266	1
267	3
268	8
269	3
270	5
271	2
272	1
273	1
274	1
275	1
276	1
277	0
278	2
279	3
280	1
281	1
282	0
283	3
284	1
285	1
286	0
287	0
288	18
289	3
291	2
292	0
293	0
294	0
295	0
296	1
297	0
298	0
299	2
300	0
313	2
323	6
324	18
325	4
326	3
327	10
328	2
334	4
341	3
352	963
353	300
354	88
355	29
356	6
368	4
369	2
383	6
384	54
385	13
386	6
