Mass Spectrum: 5-Hydroxy-2,2,6,6-tetramethyl-4-propionylcyclohex-4-ene-1,3-dione
Formula: C13H18O4
CAS: 87552-01-0
Molecular weight: 238
m/z	intensity
26	4
27	67
29	130
30	4
31	19
38	4
39	133
40	34
41	397
42	130
43	999
44	26
45	38
46	1
50	8
51	41
52	19
53	102
54	11
55	260
56	27
57	187
58	10
59	36
61	1
62	2
63	11
64	4
65	60
66	18
67	159
68	49
69	105
70	106
71	273
72	22
73	134
74	8
75	3
76	2
77	89
79	75
81	127
82	15
83	97
84	8
85	7
87	3
93	51
95	103
96	62
97	47
98	8
99	5
100	2
107	141
108	20
109	45
110	25
111	327
112	40
113	17
121	66
122	28
123	224
124	25
125	90
126	12
135	105
136	13
137	27
138	14
139	721
140	64
141	6
149	54
150	35
151	82
152	13
153	242
154	23
155	3
163	26
164	8
165	22
166	29
167	214
168	88
169	11
170	1
177	20
178	3
179	6
181	54
182	8
183	1
191	3
192	1
193	2
194	4
195	43
196	6
197	1
205	17
206	3
207	2
209	483
210	70
211	7
212	1
220	2
221	1
223	85
224	11
225	2
238	9
