Mass Spectrum: 2,6-Dimethylmorpholine-4-thiocarboxylic acid hydrazone, 1-[1-[2-pyridyl 1-oxide]ethanone
Formula: C14H20N4O2S
CAS: 87587-13-1
Molecular weight: 308
m/z	intensity
41	999
42	479
43	371
44	72
45	108
46	11
47	18
48	7
49	41
50	39
51	204
52	105
53	40
54	31
55	134
56	158
57	62
58	86
59	133
60	79
61	11
62	15
63	42
64	32
65	59
66	83
67	25
68	83
69	119
70	155
71	110
72	344
73	50
74	29
75	16
76	20
77	50
78	742
79	549
80	50
81	15
82	9
83	24
87	10
88	8
89	6
90	7
91	14
92	50
93	74
94	19
95	155
96	56
97	23
98	61
100	302
101	20
102	29
103	1
104	201
105	194
106	90
107	33
108	5
109	4
110	3
111	5
112	19
113	70
114	678
115	95
116	17
117	17
118	4
119	79
120	334
121	183
122	114
123	18
124	12
125	4
126	12
127	5
128	8
129	10
130	5
131	9
132	11
133	13
134	14
135	41
136	68
137	93
138	46
139	10
140	4
141	7
142	20
143	3
144	5
145	5
146	11
147	8
148	23
149	11
150	31
151	70
152	11
153	7
154	14
155	3
156	50
158	239
159	26
160	17
161	4
162	5
163	12
164	12
165	3
166	1
167	0
168	3
169	1
170	4
171	4
172	17
173	18
174	6
175	5
176	14
177	20
178	948
179	100
180	47
181	4
185	8
186	2
187	4
188	3
189	6
190	5
191	15
192	7
193	28
194	43
195	7
196	3
198	3
199	2
200	4
201	2
203	5
204	1
205	10
206	3
207	2
211	0
212	10
213	6
214	12
215	5
216	2
217	2
218	2
219	4
224	1
225	1
226	1
229	2
231	3
232	4
233	13
234	2
235	7
241	3
243	1
246	0
247	8
248	6
249	3
251	0
257	5
258	2
259	3
260	1
261	4
263	71
264	14
265	5
270	1
273	1
274	4
275	12
276	7
277	7
278	2
279	0
287	0
288	3
289	4
291	287
292	57
293	81
294	13
295	4
304	2
305	1
306	2
308	188
309	34
310	11
311	1
