Mass Spectrum: Pyrrolidine-1-thiocarboxylic acid 2-[1-[2-pyridyl 1-oxide]ethylidene]
Formula: C12H16N4OS
CAS: 87587-02-8
Molecular weight: 264
m/z	intensity
41	269
42	176
43	299
44	38
45	29
46	11
47	18
48	9
49	61
50	53
51	236
52	117
53	67
54	32
55	584
56	51
57	11
58	25
59	42
60	95
61	12
62	17
63	45
64	32
65	59
66	62
67	25
68	90
69	113
70	999
72	778
73	31
74	41
75	8
76	21
77	47
78	587
79	442
80	38
81	8
82	16
83	11
84	45
85	21
86	52
87	21
88	16
89	6
90	4
91	7
92	42
93	64
95	110
96	21
97	31
98	95
99	11
100	6
101	10
102	31
104	163
105	146
106	60
107	21
108	7
109	5
110	4
111	4
112	9
114	462
115	9
116	50
117	18
118	5
119	48
120	204
121	142
122	77
123	16
124	11
125	2
126	2
127	3
128	8
129	11
130	5
131	3
132	5
133	4
134	8
135	21
136	38
137	54
138	12
139	2
140	2
141	2
142	13
143	2
144	3
145	5
146	5
147	3
148	14
149	7
150	28
151	47
152	7
153	4
154	4
155	1
156	1
157	3
158	3
159	7
160	3
161	3
162	2
163	11
164	9
165	1
167	0
168	8
169	2
170	22
171	3
172	2
173	3
174	4
175	0
176	11
177	38
178	536
179	55
180	25
181	2
185	7
186	10
187	4
188	8
189	3
190	4
191	2
192	1
193	13
194	7
195	1
196	2
198	3
199	1
203	1
204	5
205	2
206	1
207	0
213	12
214	28
215	16
216	3
217	1
219	57
220	7
221	4
222	1
223	1
230	2
231	6
232	6
233	11
234	2
238	2
241	0
243	2
245	6
247	280
248	65
249	87
250	12
251	4
259	1
262	4
263	2
264	139
265	22
266	7
267	1
