Mass Spectrum: 3-Azabicyclo[3.2.2]nonane-3-thiocarboxylic acid 2-[1-[2-pyridyl 1-oxide]
Formula: C16H24N4OS
CAS: 87587-18-6
Molecular weight: 320
m/z	intensity
41	589
42	244
43	408
44	999
45	56
47	59
48	22
49	2
50	0
51	2
52	114
53	204
54	160
55	477
56	194
57	86
58	18
59	12
60	144
61	12
62	27
63	22
64	14
65	93
66	49
67	805
68	179
69	100
70	74
71	16
72	138
73	15
74	51
75	14
76	86
77	135
78	505
79	504
80	118
81	211
82	88
84	2
86	1
88	33
89	13
90	8
91	83
92	41
93	70
94	89
95	113
96	177
97	30
98	26
99	5
100	19
101	10
102	9
103	7
104	112
105	98
106	849
107	492
108	75
109	339
110	44
111	7
112	7
113	5
114	8
115	9
116	4
117	5
118	3
119	96
120	147
121	499
122	304
123	534
124	516
125	180
126	324
127	32
128	3
129	4
131	1
132	5
133	6
134	11
135	39
136	43
137	103
138	20
139	133
140	13
141	3
142	1
146	2
147	2
148	4
149	15
150	13
151	47
152	15
153	14
154	3
155	6
156	5
159	1
160	2
162	2
163	3
164	8
165	1
166	11
168	486
169	55
170	58
171	6
172	2
176	5
177	14
178	361
179	39
180	58
181	9
182	7
183	19
184	23
185	10
186	2
192	1
193	1
194	5
196	9
198	7
199	2
210	5
224	12
225	2
226	0
241	0
269	8
271	0
286	13
287	4
299	2
300	3
301	5
303	368
304	75
305	25
306	4
316	0
317	0
318	1
320	154
321	44
322	13
323	2
