Mass Spectrum: 4-Methylpiperidine-1-thiocarboxylic acid, 2-[1-[2-pyridyl 1-oxide]ethylidenehydrazide
Formula: C14H20N4OS
CAS: 87587-07-3
Molecular weight: 292
m/z	intensity
41	372
42	172
43	288
44	172
45	23
46	7
47	7
48	4
49	19
50	57
51	208
52	107
53	70
54	46
55	523
56	440
57	152
58	31
59	19
60	49
61	11
62	25
63	62
64	42
65	67
66	84
67	36
68	25
69	62
70	35
71	23
72	190
73	12
74	18
75	12
76	27
77	53
78	600
79	359
80	43
81	18
82	32
83	85
84	88
85	7
86	30
87	9
88	8
89	7
90	5
91	16
92	55
93	42
94	19
95	62
96	27
97	101
98	999
99	201
100	20
101	4
102	4
103	14
104	205
105	204
106	59
107	18
108	8
109	6
110	13
111	7
112	11
113	9
114	4
115	4
116	2
117	9
118	6
119	38
120	131
121	152
122	55
123	20
124	8
125	21
126	50
127	8
128	7
129	2
130	9
131	3
132	5
133	10
134	11
135	69
136	32
137	62
138	17
139	3
140	11
141	12
142	176
143	20
144	13
145	4
146	6
147	12
148	25
149	8
150	17
151	29
152	6
153	4
154	6
155	5
156	3
157	9
158	6
159	4
160	4
161	2
162	8
163	12
164	8
165	5
166	3
167	1
168	1
169	0
170	1
171	1
172	11
173	10
174	2
175	1
176	6
177	21
178	360
179	39
180	18
181	2
182	3
184	1
185	2
186	1
187	2
188	0
189	1
190	2
191	6
192	3
193	78
194	24
195	5
196	8
197	4
198	13
199	4
200	1
201	2
202	1
203	1
204	0
205	1
210	0
213	5
214	2
215	4
216	21
217	5
218	1
219	2
224	2
226	0
227	1
228	0
229	2
230	1
231	1
240	4
241	9
242	8
243	10
244	2
245	1
246	1
247	44
248	7
249	3
256	2
258	3
259	12
260	8
261	13
262	2
263	1
268	0
270	0
273	1
274	2
275	226
276	75
277	61
278	11
279	3
280	3
281	1
290	2
291	4
292	63
293	12
294	4
295	0
