Mass Spectrum: thiomorpholine-4-thiocarbonyl 2-[1-[2-Pyridtl-1-oxide]ethylidene]hydrazide
Formula: C12H16N4OS2
CAS: 87587-08-4
Molecular weight: 296
m/z	intensity
42	434
43	310
44	139
45	258
46	268
47	68
48	35
49	39
50	81
51	334
52	153
53	42
54	29
55	37
56	467
57	561
58	141
59	125
60	95
61	81
62	23
63	118
64	90
65	64
66	202
67	17
68	30
69	15
70	38
71	25
72	36
73	9
74	121
75	50
76	54
78	999
79	512
80	40
84	19
86	91
87	70
88	147
89	17
90	29
91	23
92	76
93	63
94	38
95	101
96	9
101	69
102	186
103	580
104	596
105	859
106	143
107	39
111	5
114	28
116	15
117	6
118	50
119	97
120	147
121	403
122	125
123	28
124	5
127	23
128	24
129	6
130	57
131	5
132	16
133	58
134	24
135	336
136	77
137	71
138	50
144	7
145	32
146	134
147	77
148	140
150	35
151	51
152	12
154	12
160	55
161	23
162	29
163	19
164	6
173	7
176	11
177	87
178	534
179	43
180	8
191	24
192	17
193	384
194	178
195	38
202	33
206	5
209	9
210	13
219	6
220	8
221	5
224	16
225	14
226	14
233	7
241	26
247	35
251	33
263	5
265	30
278	5
279	212
280	233
281	65
282	31
296	82
297	6
