Mass Spectrum: Ketone, methyl 2-pyridyl, 1-oxide, 4,4-dimethyl-3-thiosemicarbazone
Formula: C10H14N4OS
CAS: 87587-01-7
Molecular weight: 238
m/z	intensity
42	340
43	223
44	300
45	66
46	42
47	53
48	2
49	27
50	45
51	204
52	105
53	37
54	12
55	50
56	65
57	17
58	17
59	27
60	39
61	26
62	16
63	51
64	30
65	56
66	57
67	18
68	12
69	36
70	21
71	93
72	100
73	125
74	53
75	14
76	60
77	49
78	579
79	445
80	39
81	6
82	5
83	7
84	17
86	15
87	12
88	999
89	33
90	85
91	15
92	46
93	80
94	9
95	84
96	17
97	7
98	51
99	6
100	2
101	4
102	13
103	13
104	178
105	177
106	65
107	20
108	5
109	3
110	3
111	4
112	1
113	1
114	5
115	1
116	2
117	14
118	8
119	38
120	135
121	104
122	101
123	21
124	12
125	2
126	1
127	1
128	2
129	1
130	1
131	2
132	5
133	14
134	9
135	23
136	40
137	45
138	13
139	2
140	1
141	0
142	11
143	4
144	29
145	6
146	5
147	5
148	19
149	10
150	23
151	36
152	7
153	3
154	7
155	0
156	0
157	1
158	0
159	15
160	4
161	3
162	3
163	12
164	9
165	4
166	0
167	1
168	0
173	13
174	1
176	9
177	30
178	352
179	36
180	17
181	1
184	0
186	0
187	3
188	31
189	6
190	0
191	7
192	0
193	135
194	43
195	9
196	3
198	3
204	1
205	3
206	19
207	14
208	3
209	1
218	0
219	1
221	179
222	42
223	136
224	17
225	7
226	2
236	3
237	3
238	318
239	43
240	17
241	2
