Mass Spectrum: 3-(4'-Methoxy-1,1-biphenyl-4-yl)-3-hydroxybutanenitrile
Formula: C17H17NO2
CAS: 87588-67-8
Molecular weight: 267
m/z	intensity
43	999
76	30
77	20
139	60
140	40
151	20
152	50
153	30
168	30
183	20
211	50
227	510
267	150
