Mass Spectrum: 1-[2-Pyridyl]piperazine-4-thiocarboxylic acid 2-[1-2-pyridyl 1-oxide]
Formula: C17H20N6OS
CAS: 87587-11-9
Molecular weight: 356
m/z	intensity
41	48
42	225
43	261
44	63
45	19
46	11
47	6
48	5
49	34
50	121
51	456
52	267
53	68
54	39
55	48
56	207
57	76
58	55
59	21
60	19
61	14
62	38
63	107
64	72
65	96
66	169
67	52
68	30
69	35
70	35
71	9
72	30
74	25
75	18
76	49
77	60
78	999
79	576
80	133
81	26
82	1
83	11
84	23
85	20
86	18
87	4
88	6
89	9
90	8
91	10
92	78
93	59
94	90
95	829
96	60
97	1
98	14
99	5
100	5
101	2
102	4
103	11
104	303
105	315
107	648
108	141
109	10
110	1
111	2
112	1
113	4
114	18
115	3
116	2
117	6
118	13
119	114
120	76
121	716
122	64
123	5
124	2
125	0
128	3
129	2
130	1
131	11
132	5
133	166
134	12
135	167
136	19
137	7
138	4
139	0
142	2
143	0
144	1
145	15
146	9
147	30
148	43
149	7
150	5
151	11
152	1
153	1
155	0
156	1
157	0
158	3
159	0
160	9
161	13
162	38
163	288
164	36
165	2
167	0
170	1
172	1
173	1
174	1
176	9
177	24
178	41
179	5
180	2
186	0
187	3
188	2
189	1
190	2
191	1
192	0
193	176
194	25
195	9
196	1
204	4
205	1
206	5
207	2
214	0
215	0
219	2
220	5
221	1
222	1
223	1
233	1
247	5
248	2
249	2
256	1
260	0
263	1
264	2
265	0
275	2
276	1
277	1
291	3
292	2
293	1
307	1
308	2
323	0
324	0
338	0
339	14
340	3
341	1
356	2
