Mass Spectrum: Methyl 3-[1-[2-pyridyl]ethylidene]hydrazine carbodithioate 1-oxide
Formula: C9H11N3OS2
CAS: 87587-00-6
Molecular weight: 241
m/z	intensity
41	23
42	153
43	315
44	25
45	171
46	63
47	162
48	70
49	101
50	90
51	414
52	203
53	61
54	16
55	16
56	15
57	13
58	21
59	78
60	36
61	17
62	31
63	95
64	64
65	94
66	121
67	25
68	10
69	14
70	12
71	8
72	12
73	19
74	54
75	40
76	70
77	99
78	999
79	515
80	56
81	8
82	3
83	10
87	2
88	17
89	8
90	13
91	303
92	70
93	100
95	390
96	29
97	5
98	2
99	6
100	1
101	2
102	3
103	9
104	229
105	297
106	184
107	76
108	8
109	4
110	3
111	4
112	2
113	2
114	3
115	1
116	1
117	8
118	9
119	127
120	61
121	71
122	77
123	23
124	17
125	3
126	1
127	1
129	2
130	2
131	2
132	18
133	6
134	1
135	45
136	190
137	23
138	10
139	2
144	3
145	4
146	1
147	14
148	20
149	18
150	16
151	26
152	5
153	1
154	14
155	1
156	0
158	3
159	2
160	7
161	2
162	4
163	2
164	1
165	5
166	1
167	5
175	0
176	18
177	64
178	63
179	10
180	4
181	2
185	0
186	0
187	1
190	2
192	16
193	22
194	966
195	95
196	50
197	4
203	1
205	0
207	0
208	5
209	28
210	6
211	3
219	6
220	0
221	1
222	0
223	4
224	62
225	20
226	80
227	9
228	7
238	1
239	1
241	116
242	15
243	11
244	1
