Mass Spectrum: 1-Carboethoxypiperazine-4-thiocarboxylic acid 2-[1-[2-pyridyl 1-oxide]hydrazide
Formula: C15H21N5O3S
CAS: 87587-10-8
Molecular weight: 351
m/z	intensity
42	423
43	313
44	653
45	49
46	10
47	19
48	9
49	73
50	84
51	305
52	140
53	43
54	62
55	235
56	730
57	197
58	98
59	35
60	57
61	18
62	41
63	100
64	65
65	85
66	153
67	31
68	64
69	203
70	254
71	25
72	175
73	20
74	40
75	34
76	52
77	79
78	999
79	530
80	53
81	17
82	13
83	126
84	111
85	136
86	94
88	62
89	13
90	25
91	23
92	73
93	60
94	36
95	138
96	34
97	19
98	37
99	16
100	34
101	16
102	21
103	21
104	412
105	432
106	115
107	57
108	11
109	6
110	10
111	67
112	14
113	108
114	42
115	57
116	393
117	38
118	15
119	76
120	250
121	248
122	123
123	21
124	16
125	4
127	19
128	60
129	69
130	8
131	13
132	18
133	45
134	13
135	196
136	66
137	61
138	112
139	13
140	2
141	10
142	13
143	12
144	4
145	23
146	15
147	38
148	69
149	29
150	32
151	61
152	11
153	5
154	10
155	15
156	46
157	153
158	213
159	27
160	14
161	17
162	29
163	26
164	13
165	2
169	5
170	5
171	5
172	5
173	21
174	2
176	23
177	52
178	816
179	78
180	40
181	4
182	4
183	6
185	13
186	7
187	8
189	7
191	24
192	2
193	237
194	76
195	20
196	4
199	22
201	74
202	19
203	8
204	9
205	5
206	5
207	9
211	8
214	2
215	15
216	4
217	10
218	2
219	7
220	19
221	4
223	2
226	2
232	9
233	4
234	4
241	2
247	12
248	9
249	3
255	4
257	8
264	6
274	2
275	16
276	7
288	8
290	8
291	4
292	4
302	2
306	39
307	7
308	4
318	6
319	7
320	4
334	167
335	45
336	42
337	8
339	11
340	8
351	78
352	18
353	5
