Mass Spectrum: 3-Azabicyclo[3.2.2]nonane-3-thiocarboxylic acid 2-[1-[2-pyridyl]
Formula: C16H22N4OS
CAS: 87587-14-2
Molecular weight: 318
m/z	intensity
41	348
42	169
43	387
44	369
45	58
46	10
47	47
48	28
49	23
50	47
51	196
52	112
53	109
54	75
55	250
56	180
57	63
58	25
59	21
60	42
61	10
62	20
63	48
64	29
65	75
66	94
67	316
68	102
69	65
70	61
71	22
72	76
73	16
74	21
75	10
76	30
77	87
78	515
79	455
80	75
81	104
82	55
83	20
84	23
85	5
86	19
87	5
88	36
89	8
90	7
91	49
92	41
93	58
94	58
95	128
96	116
97	17
98	12
99	5
100	7
101	4
102	4
103	7
104	167
105	172
106	50
107	62
108	20
109	69
110	19
111	5
112	4
113	3
114	7
115	2
116	3
117	8
118	8
119	36
120	149
121	121
122	97
123	48
124	999
125	164
126	15
127	0
128	5
129	2
130	2
131	4
132	31
133	13
134	7
135	65
136	42
137	59
138	33
139	16
140	3
141	1
142	1
143	1
144	14
145	7
146	4
147	12
148	18
149	17
150	15
151	34
152	19
153	6
154	5
155	0
156	5
157	2
158	2
159	8
160	16
161	4
162	7
163	20
164	10
165	6
166	3
167	1
168	67
169	16
170	7
171	2
172	2
173	2
174	1
176	7
177	17
178	315
179	36
180	16
181	4
182	2
183	10
184	4
185	3
186	2
187	3
188	1
190	2
191	2
192	1
193	68
194	36
195	7
196	3
199	4
203	2
205	2
208	7
209	2
210	1
213	1
214	3
219	15
220	3
221	1
222	10
223	16
224	9
225	4
226	3
227	1
239	3
240	0
241	6
242	48
243	8
244	0
245	1
249	2
256	0
267	6
268	2
269	7
270	1
273	16
274	2
275	0
285	9
286	3
287	5
288	2
289	2
297	4
299	5
301	221
302	52
303	37
304	6
305	2
316	1
317	1
318	23
319	5
320	1
