Mass Spectrum: Benzamide, 4-methyl-N-(4-phenyl-2-thiazolyl)-
Formula: C17H14N2OS
CAS: 87614-00-4
Molecular weight: 294
m/z	intensity
33	5
34	0
36	0
37	2
39	49
40	12
41	12
42	1
43	1
45	31
47	1
50	20
51	33
52	6
53	3
54	0
55	0
56	0
57	1
58	1
59	1
60	0
61	1
63	42
65	120
66	4
67	0
69	6
70	3
71	2
72	0
73	1
74	5
75	7
76	17
77	44
78	4
79	1
81	0
82	2
83	0
84	1
85	0
86	2
87	2
89	56
91	347
92	17
93	2
95	1
96	0
97	0
98	0
99	0
100	0
101	1
102	6
103	10
104	12
105	31
107	2
108	4
109	1
110	0
112	0
113	0
114	1
115	2
116	4
119	999
120	76
121	16
122	1
123	0
124	0
127	0
129	5
130	0
131	4
134	96
135	8
136	5
137	0
139	0
141	0
142	0
144	0
146	4
147	2
148	6
149	1
150	0
151	0
152	0
159	0
160	0
161	0
162	0
163	0
165	0
171	0
173	0
174	3
175	10
176	20
177	2
178	1
179	0
190	0
191	0
202	0
203	0
204	1
205	0
206	0
218	0
219	0
221	0
251	0
252	0
256	0
260	0
261	0
264	0
265	4
266	6
267	1
268	0
279	0
280	16
281	2
282	0
283	0
288	0
289	0
290	0
291	2
294	464
295	88
296	26
297	4
298	0
