Mass Spectrum: 4H-1-Benzopyran-8-acetic acid, 4-oxo-2-phenyl-, 2-(diethylamino)ethyl ester,hydrochloride
Formula: C23H25NO4
CAS: 87626-57-1
Molecular weight: 379
m/z	intensity
42	67
43	17
44	39
45	5
47	0
49	3
50	8
51	40
52	7
53	3
54	5
55	6
56	52
57	19
58	88
59	3
62	1
63	6
64	1
65	3
66	0
67	0
68	2
69	5
70	16
71	20
72	11
73	1
74	4
75	6
76	21
77	57
78	6
79	0
82	1
83	0
84	18
86	999
87	64
88	3
89	4
90	0
91	1
92	0
96	0
97	1
98	4
99	55
100	12
102	60
103	7
104	5
105	42
106	7
107	0
111	0
112	0
113	0
114	1
115	1
116	3
117	4
118	0
119	0
120	1
126	0
127	0
129	2
131	1
133	141
134	16
135	1
139	1
147	0
149	1
150	0
151	1
152	3
153	1
160	6
161	3
163	0
165	1
168	0
176	3
177	2
178	5
179	1
182	4
189	0
205	6
206	1
207	3
208	1
219	0
234	0
235	38
236	12
237	1
250	0
251	0
252	0
262	1
263	1
279	0
280	5
281	1
294	3
295	0
307	16
308	3
364	9
365	2
378	1
379	43
380	12
381	2
