Mass Spectrum: Methane, bis(di-t-butylphosphino)-
Formula: C17H38P2
CAS: 87648-10-0
Molecular weight: 304
m/z	intensity
26	8
27	53
29	181
30	5
37	0
38	2
39	39
40	6
41	277
42	64
43	80
44	0
45	10
46	0
47	0
48	1
49	1
50	4
51	5
52	5
53	14
54	6
55	15
56	10
57	999
58	28
59	7
60	0
61	19
62	6
64	0
65	4
66	12
67	13
70	1
71	3
72	17
73	4
74	2
75	9
77	14
78	9
79	31
80	7
81	1
82	2
83	2
85	0
87	45
88	3
89	19
90	7
91	11
92	2
93	18
95	1
97	1
100	1
101	13
102	4
103	122
104	12
105	0
106	0
107	4
108	11
109	6
112	4
114	0
116	0
117	1
119	12
120	2
121	1
127	0
131	1
132	0
133	15
134	18
135	286
136	22
137	0
139	0
140	0
142	0
145	0
146	3
147	1
148	0
157	1
158	0
159	20
160	1
161	0
162	0
163	0
164	1
166	0
175	1
176	1
177	1
179	0
189	6
190	4
191	482
192	67
193	3
206	0
221	0
222	2
225	0
231	0
233	1
247	32
248	206
249	25
289	5
290	0
303	0
304	14
305	3
