Mass Spectrum: 2-Acetoxy-2-cyanospiro[cyclopropane-1,9'-fluorene]
Formula: C18H13NO2
CAS: 87656-19-7
Molecular weight: 275
m/z	intensity
43	999
150	20
151	30
152	40
163	15
165	20
176	70
178	460
190	20
204	20
205	25
232	130
275	140
