Mass Spectrum: trans-1-Acetoxy-1-cyano-2-methyl-2-phenylcyclopropane
Formula: C13H13NO2
CAS: 87656-21-1
Molecular weight: 215
m/z	intensity
43	999
51	40
77	60
78	40
91	30
103	80
117	150
118	200
145	30
155	70
172	30
187	5
215	2
