Mass Spectrum: cis-1-Acetoxy-1-cyano-2-methyl-2-phenylcyclopropane
Formula: C13H13NO2
CAS: 87656-20-0
Molecular weight: 215
m/z	intensity
43	999
51	40
77	50
78	40
91	30
103	70
117	120
118	150
145	30
155	60
172	40
187	10
215	6
