Mass Spectrum: N-Methoxy-N-acetyl-1-methyl-1-carbomethoxyethylamine
Formula: C8H15NO4
CAS: 87687-85-2
Molecular weight: 189
m/z	intensity
43	101
44	19
56	55
57	14
58	14
59	18
72	18
73	36
74	9
87	36
88	999
89	55
90	9
100	25
101	32
102	36
103	18
130	36
131	8
147	237
148	18
158	14
189	5
190	1
