Mass Spectrum: 3,6-Dimethyl-7-oxo-1,7-dihydro-[1,2,4]-triazolo(4,3-b)-[1,2,4]-triazine
Formula: C6H7N5O
CAS: 877-27-0
Molecular weight: 165
m/z	intensity
40	210
41	571
42	381
43	190
53	140
54	160
55	272
56	999
57	319
67	129
68	220
69	202
124	825
125	40
165	762
166	40
