Mass Spectrum: s-Tetrazine, 3,6-bis(dimethylamino)-
Formula: C6H12N6
CAS: 877-77-0
Molecular weight: 168
m/z	intensity
15	298
27	47
28	202
40	35
41	50
42	213
43	98
44	68
45	23
53	48
55	26
69	999
70	825
71	613
72	43
168	468
169	48
