Mass Spectrum: Acetamide, N-(2-phenylethyl)-
Formula: C10H13NO
CAS: 877-95-2
Molecular weight: 163
m/z	intensity
25	0
26	3
27	15
28	27
29	4
30	999
31	14
32	0
37	0
38	4
39	42
40	5
41	15
42	14
43	278
44	10
45	1
49	0
50	10
51	34
52	10
53	4
54	1
55	0
56	0
58	0
59	0
60	2
61	0
62	4
63	19
64	5
65	70
66	5
67	0
71	0
72	140
73	5
74	3
75	2
76	3
77	37
78	30
79	10
80	1
86	0
87	0
88	0
89	13
90	7
91	125
92	27
93	3
94	0
101	0
102	5
103	31
104	608
105	65
106	3
116	0
117	2
118	5
119	5
120	10
121	1
148	1
163	122
164	14
165	1
