Mass Spectrum: 1,4,8-Triazaspiro[4.5]decan-1-ene, 2,3,3,7,7,9,9-heptamethyl-, 1-oxide
Formula: C14H27N3O
CAS: 87703-67-1
Molecular weight: 253
m/z	intensity
39	219
41	999
42	824
43	100
44	19
46	0
50	3
51	15
52	18
53	116
54	46
55	128
56	85
57	104
58	319
59	13
60	2
65	22
66	21
67	66
68	54
69	238
70	37
71	18
72	6
77	10
78	3
79	24
80	24
81	42
82	125
83	55
84	30
85	5
91	3
92	2
93	9
94	21
96	63
98	497
99	115
100	20
101	1
105	2
106	8
107	19
108	33
109	19
110	8
112	11
113	3
119	1
120	4
121	15
122	108
123	38
124	17
125	7
133	1
134	2
135	3
136	7
137	10
138	23
139	154
140	24
141	1
147	1
148	1
149	6
150	3
151	2
153	12
154	2
155	4
156	4
163	4
164	1
165	4
179	5
180	4
181	4
236	11
238	95
239	12
250	5
251	5
253	76
254	10
