Mass Spectrum: Trichloromethyl 4-nitrophenyl sulfone
Formula: C7H4Cl3NO4S
CAS: 87721-12-8
Molecular weight: 303
m/z	intensity
37	30
38	77
39	72
40	28
43	11
44	41
45	72
46	17
47	64
48	27
49	37
50	296
51	40
52	36
53	20
55	17
57	20
58	43
60	10
61	21
62	50
63	170
64	112
65	20
69	112
70	169
71	17
72	11
73	41
74	155
75	281
76	438
77	36
79	49
81	22
82	145
83	29
84	121
85	24
86	36
87	13
92	92
93	15
95	90
96	106
97	20
106	16
107	10
108	22
111	18
112	36
117	999
118	32
119	953
120	25
121	462
122	84
123	77
124	63
125	12
140	30
150	51
154	10
170	73
186	53
