Mass Spectrum: .delta.-9-Octaline, 3,7-dibora-2,4,6,8-tetraoxa-1,5-dioxo-3,7-diphenyl-
Formula: C16H10B2O6
CAS: 87720-43-2
Molecular weight: 320
m/z	intensity
25	0
26	9
27	16
29	4
30	0
36	0
37	3
38	6
39	58
40	2
41	1
42	0
43	0
44	1
45	0
47	0
48	1
49	3
50	43
51	66
52	81
53	35
54	9
55	10
56	22
57	2
58	0
59	0
60	3
61	16
62	11
63	11
64	2
65	9
66	2
67	1
68	12
69	1
70	0
71	0
72	0
73	1
74	6
75	7
76	25
77	133
78	62
79	4
80	0
81	0
82	2
83	0
84	1
85	4
86	5
87	23
88	18
89	5
90	1
91	3
92	1
93	0
94	0
95	0
96	1
99	0
100	1
101	3
102	8
103	270
104	999
105	70
106	4
107	0
110	0
111	2
113	0
114	0
115	2
116	2
117	0
118	0
119	1
120	1
128	1
129	0
130	2
131	3
132	1
133	0
134	0
135	1
136	1
137	1
139	0
143	0
144	0
147	0
149	0
150	0
151	0
152	0
155	0
158	0
159	2
160	35
161	2
162	1
163	6
164	10
165	3
166	0
168	0
172	0
173	0
174	0
175	0
179	0
180	0
181	0
182	0
183	0
184	0
186	0
187	5
188	14
189	1
190	2
191	7
192	13
193	1
194	0
201	0
202	0
203	0
204	0
205	1
206	11
207	78
208	166
209	21
210	1
211	0
214	0
215	2
216	2
217	0
218	0
219	0
234	0
235	2
236	2
247	0
248	0
271	1
272	2
273	0
274	0
275	0
276	0
304	0
309	0
314	0
315	0
316	0
318	29
319	225
320	475
321	81
322	12
323	2
324	0
