Mass Spectrum: 2-Butenoic acid, 3-methoxy-4-nitro-, (E)-
Formula: C5H7NO5
CAS: 87730-91-4
Molecular weight: 161
m/z	intensity
25	11
26	42
27	201
28	30
29	130
30	95
31	74
33	56
36	5
37	21
38	46
39	238
40	117
41	191
42	103
43	104
44	125
45	159
46	24
47	5
50	8
51	18
52	31
53	44
54	26
55	602
56	91
57	126
58	16
59	232
60	25
61	22
62	6
65	12
66	14
67	27
68	145
69	571
70	59
71	67
72	68
73	48
74	7
75	9
76	13
77	14
78	10
79	8
80	7
81	18
82	14
83	999
84	144
85	189
86	48
87	96
88	10
89	40
90	4
91	16
92	6
93	13
94	8
95	19
96	15
97	30
98	91
99	32
100	100
101	23
102	5
104	17
105	13
106	5
107	6
108	5
109	12
110	58
111	22
112	8
113	116
114	107
115	831
116	268
117	42
118	8
119	5
121	10
122	8
123	11
124	5
125	11
126	44
127	79
128	14
129	10
130	6
131	117
132	10
133	4
135	7
136	5
137	8
138	6
139	6
140	4
141	6
142	5
143	126
144	51
145	8
147	4
148	3
160	5
161	18
162	4
163	2
