Mass Spectrum: 7-Nitro-3-(2-nitro-1-phenyl-ethyl)-3,4-dihydro-1H-naphthalen-2-one
Formula: C18H16N2O5
CAS: 87732-63-6
Molecular weight: 340
m/z	intensity
25	19
27	102
28	39
29	35
30	88
31	3
37	15
38	40
39	209
40	26
41	101
42	18
43	90
44	17
45	39
46	10
49	9
50	166
51	410
52	94
53	56
54	18
55	90
56	27
57	78
58	14
59	7
60	17
61	29
62	91
63	246
64	52
65	232
66	119
67	52
68	20
69	56
70	21
71	38
72	5
73	26
74	87
75	103
76	133
77	842
78	195
79	69
80	12
81	30
82	17
83	40
84	15
85	21
86	22
87	42
88	31
89	159
90	77
91	999
92	131
93	46
94	35
95	23
96	22
97	28
98	18
99	8
100	8
101	63
102	409
103	507
104	578
105	416
106	52
107	18
108	7
109	12
110	9
111	12
112	5
113	19
114	33
115	556
116	312
117	194
118	58
119	68
120	39
121	22
122	7
123	9
124	4
125	6
126	12
127	43
128	77
129	43
130	38
131	51
132	131
133	52
134	16
135	10
136	5
137	3
138	3
139	15
140	8
141	38
142	31
143	43
144	133
145	70
146	37
147	7
148	24
149	805
150	111
151	21
152	17
153	10
154	4
155	5
156	8
157	20
158	10
159	35
160	31
161	21
162	24
163	78
164	15
165	24
166	6
167	5
168	5
169	5
170	7
171	6
172	3
173	21
174	28
175	15
176	70
177	12
178	28
179	11
180	3
183	4
184	3
185	4
186	9
187	18
189	64
190	117
191	504
192	69
193	9
199	3
200	7
201	11
202	57
203	52
204	51
205	23
206	7
207	2
213	8
214	9
215	37
216	21
217	21
218	27
219	15
220	11
221	4
224	3
226	2
227	4
228	12
229	21
230	44
231	23
232	15
233	12
234	6
235	4
236	4
237	2
238	2
240	2
241	3
242	4
243	11
244	6
245	10
246	25
247	13
248	14
249	7
250	25
251	18
252	3
257	4
258	14
259	15
260	9
261	7
262	17
263	9
264	13
265	15
267	20
274	7
275	7
276	43
277	21
278	29
279	22
280	4
288	2
289	7
290	5
291	6
292	32
293	550
294	170
295	28
296	3
304	19
305	9
306	16
307	5
310	18
311	3
322	34
323	7
324	4
