Mass Spectrum: 2,3-Diazatetracyclo[3.3.0.0(4,7).0(6,8)]octane-3-carboxylic acid, methyl amide
Formula: C8H11N3O
CAS: 87733-99-1
Molecular weight: 165
m/z	intensity
26	17
27	68
28	61
29	28
30	44
31	10
32	0
36	3
37	4
38	17
39	127
40	19
41	27
42	26
43	50
44	25
45	1
49	3
50	31
51	77
52	109
53	157
54	58
55	84
56	21
57	19
58	384
59	30
60	2
61	0
62	3
63	16
64	18
65	52
66	35
67	40
68	16
69	44
70	2
71	1
73	25
74	5
75	3
76	8
77	82
78	150
79	77
80	999
81	303
82	45
83	2
84	1
90	3
91	24
92	21
93	13
94	3
95	1
98	3
99	1
100	37
101	1
105	11
106	24
107	205
108	309
109	26
110	0
117	8
118	0
119	1
121	0
133	1
134	11
135	13
136	0
139	1
149	0
165	19
166	6
