Mass Spectrum: 3-Butenoic acid, 3-methoxy-4-nitro-, methyl ester, (E)-
Formula: C6H9NO5
CAS: 87730-90-3
Molecular weight: 175
m/z	intensity
25	2
26	32
27	189
28	45
29	108
30	80
31	38
33	22
37	13
38	53
39	244
40	222
41	199
42	83
43	83
44	23
45	173
46	17
47	49
50	2
51	4
52	4
53	30
54	22
55	505
56	73
57	97
58	19
59	313
60	11
61	3
65	1
66	13
67	38
68	357
69	303
70	26
71	43
72	15
73	9
74	3
75	69
76	3
77	3
79	8
81	5
82	5
83	21
84	15
85	69
86	39
87	8
88	10
89	3
91	3
93	2
94	1
95	3
96	6
97	23
98	404
99	69
100	12
101	999
102	63
103	39
104	3
105	8
106	1
107	1
109	2
110	5
111	3
112	3
113	44
114	72
115	26
116	88
117	9
118	1
119	2
120	1
121	1
123	2
124	2
125	1
126	20
127	4
128	55
129	930
130	76
131	10
132	6
133	13
134	6
135	2
137	1
139	1
141	2
142	3
143	11
144	361
145	107
146	12
147	6
151	1
152	1
155	1
157	1
158	13
159	3
175	16
176	8
177	1
