Mass Spectrum: Glaucic acid
Formula: C15H22O2
CAS: 87745-30-0
Molecular weight: 234
m/z	intensity
41	100
43	120
55	370
67	200
69	100
79	420
80	80
81	750
82	70
91	300
93	750
94	480
95	999
96	120
105	330
106	50
107	700
108	240
109	180
117	100
119	270
120	100
121	750
122	450
123	400
124	70
125	80
131	240
133	400
134	80
135	200
136	170
137	100
138	400
139	80
145	150
146	50
147	300
148	80
149	120
159	90
160	100
161	200
162	90
163	100
164	90
173	230
177	450
178	270
179	250
188	100
189	550
190	50
201	80
205	50
219	200
234	600
235	120
