Mass Spectrum: Perfluoro(6-methoxy-7-oxabicyclo[4.3.0]nonane)
Formula: C9F16O2
CAS: 87744-09-0
Molecular weight: 444
m/z	intensity
31	20
47	53
69	999
93	44
100	53
131	156
143	35
162	39
181	43
193	52
212	201
243	101
281	24
359	55
