Mass Spectrum: Perfluoro(1-oxaspiro[4.5]decane)
Formula: C9F16O
CAS: 87744-16-9
Molecular weight: 428
m/z	intensity
31	100
43	51
50	48
69	999
93	153
100	767
109	77
119	153
131	600
143	79
150	361
169	187
181	174
193	94
231	46
243	99
259	122
293	127
309	33
409	47
