Mass Spectrum: Perfluoro(3-methoxy-2-oxabicyclo[3.3.0]octane)
Formula: C8F14O2
CAS: 87744-08-9
Molecular weight: 394
m/z	intensity
47	80
69	999
93	102
100	107
131	186
162	81
181	59
193	70
212	118
231	61
262	55
309	81
