Mass Spectrum: Spiro[2.3]hexane-5-carboxylic acid, 1,1-dimethyl-, t-butyl ester
Formula: C13H22O2
CAS: 87753-87-5
Molecular weight: 210
m/z	intensity
26	11
27	153
28	35
29	202
30	5
31	14
33	0
37	2
38	6
39	161
40	34
41	407
42	26
43	88
44	4
45	4
46	0
47	2
48	0
49	0
50	7
51	24
52	15
53	71
54	21
55	99
56	50
57	859
58	38
59	21
60	0
61	0
62	1
63	4
64	1
65	29
66	16
67	274
68	21
69	26
70	5
71	3
73	12
74	1
75	1
76	1
77	48
78	11
79	62
80	12
81	66
82	999
83	66
84	3
85	1
86	1
87	1
88	0
89	1
90	0
91	36
92	7
93	171
94	30
95	38
96	5
97	9
98	14
99	4
100	0
101	0
103	1
104	0
105	4
106	0
107	33
108	208
109	562
110	46
111	54
112	7
113	1
117	0
118	0
119	0
120	1
121	10
122	1
123	0
124	0
125	7
126	1
127	0
129	0
134	0
135	1
136	21
137	59
138	6
139	67
140	7
141	1
149	0
152	0
153	6
154	181
155	20
156	2
157	0
165	0
167	0
176	0
195	3
196	0
210	2
211	0
