Mass Spectrum: Cyclopentanecarboxylic acid, 3,3-dimethyl-4-methylene-, 1,1-dimethylethyl ester
Formula: C13H22O2
CAS: 87753-77-3
Molecular weight: 210
m/z	intensity
26	9
27	113
28	53
29	186
30	4
31	14
37	2
38	6
39	125
40	27
41	342
42	22
43	68
44	3
45	5
46	1
47	2
50	5
51	19
52	11
53	63
54	12
55	67
56	46
57	999
58	39
59	16
60	0
61	0
62	1
63	3
64	1
65	24
66	10
67	137
68	14
69	20
70	3
71	2
73	3
74	0
75	2
76	1
77	56
78	9
79	56
80	9
81	32
82	166
83	14
84	0
85	0
86	0
87	1
88	0
89	1
90	0
91	37
92	6
93	194
94	25
95	32
96	2
97	5
98	15
99	3
100	0
103	0
105	2
106	1
107	24
108	438
109	501
110	41
111	53
112	6
113	1
114	1
119	0
120	3
121	11
122	1
123	1
125	8
126	0
129	0
135	1
136	36
137	124
138	14
139	96
140	12
141	2
142	0
152	0
153	3
154	181
155	20
156	2
157	0
165	0
195	5
196	0
207	0
210	1
