Mass Spectrum: Cyclopentanecarboxylic acid, 3-methyl-4-methylene-, methyl ester, trans-
Formula: C9H14O2
CAS: 87753-70-6
Molecular weight: 154
m/z	intensity
26	20
27	267
28	1
29	67
30	8
31	13
33	9
37	5
38	17
39	292
40	46
41	184
42	20
43	49
44	3
45	19
46	2
47	3
48	2
49	2
50	27
51	75
52	43
53	173
54	25
55	195
56	10
57	6
58	2
59	72
60	1
61	16
62	6
63	19
64	4
65	42
66	29
67	173
68	38
69	13
70	0
71	3
72	1
73	2
74	5
75	7
76	4
77	162
78	33
79	470
80	70
81	26
82	6
83	5
85	5
87	36
88	2
89	3
90	2
91	54
92	12
93	121
94	663
95	999
96	51
97	10
98	1
99	2
100	2
105	1
107	12
108	2
109	1
111	23
112	3
113	2
121	6
122	13
123	76
124	5
125	5
137	3
139	65
140	5
153	1
154	7
