Mass Spectrum: 3-Ethyl-3-hydroxyglutaric acid tri(trimethylsilyl) deriv.
Formula: C16H36O5Si3
CAS: 87764-49-6
Molecular weight: 392
m/z	intensity
67	22
69	39
72	44
73	999
74	97
99	32
101	5
105	5
112	2
113	8
115	7
116	7
117	54
119	6
121	4
122	3
123	28
127	3
128	4
129	238
130	11
131	35
133	83
134	6
135	4
138	3
141	3
143	37
144	3
145	3
147	290
148	41
149	56
150	4
151	2
163	9
169	3
171	5
173	6
183	19
184	3
191	4
197	3
203	5
204	6
205	8
208	3
212	7
213	60
214	4
215	2
217	12
219	2
220	2
221	4
231	7
245	79
246	7
247	2
261	200
262	29
263	7
273	277
274	41
275	11
287	34
288	4
363	13
364	4
377	9
378	2
