Mass Spectrum: 3-Methyl-2-(2-oxopropyl)furan
Formula: C8H10O2
CAS: 87773-62-4
Molecular weight: 138
m/z	intensity
55	770
56	260
57	999
65	210
67	230
69	680
70	250
71	450
81	210
83	210
95	450
109	240
123	50
137	40
138	70
