Mass Spectrum: Oxazol-5(4H)-one, 4-(3,4-dimethoxybenzylydene)-2-phenyl-
Formula: C18H15NO4
CAS: 87795-49-1
Molecular weight: 309
m/z	intensity
33	0
34	0
35	0
36	0
37	1
38	3
39	11
40	3
41	2
42	0
43	3
44	4
45	1
46	0
47	1
48	0
49	1
50	23
51	68
52	6
53	5
54	0
55	1
56	0
57	1
58	0
59	0
60	0
61	1
62	6
63	23
64	9
65	6
66	1
67	0
68	0
69	1
70	0
71	0
72	0
73	0
74	6
75	15
76	52
77	355
78	31
79	3
80	0
81	0
82	0
83	6
84	0
85	3
86	1
87	2
88	4
89	7
90	16
91	5
92	1
93	0
94	0
95	0
96	0
97	0
98	0
99	0
100	0
101	2
102	7
103	24
105	999
106	91
107	6
108	0
109	0
110	0
111	0
112	0
113	0
114	2
115	8
116	2
117	2
118	1
119	3
120	0
121	0
122	0
123	0
124	0
125	0
126	0
127	0
128	0
130	16
131	16
132	11
133	6
134	0
135	0
136	0
137	0
138	0
139	1
140	0
141	0
142	0
143	0
144	0
145	0
146	0
147	1
148	0
149	1
150	0
151	3
152	0
153	0
155	5
158	0
159	0
160	2
161	1
162	1
163	0
164	0
165	0
166	0
167	0
171	0
172	0
174	0
176	32
177	3
178	0
179	0
181	2
182	0
183	0
190	0
191	0
192	0
193	0
194	0
195	0
203	0
204	0
205	0
206	0
207	0
208	0
209	0
219	0
220	0
221	0
222	0
223	0
233	0
234	0
235	0
236	0
237	0
248	0
249	0
250	0
251	0
252	0
263	0
264	0
265	0
277	0
278	0
280	0
281	0
289	0
292	0
293	0
294	0
306	0
309	213
310	41
311	6
312	0
