Mass Spectrum: Uracil, 6-chloro-3-methyl-5-nitro-
Formula: C5H4ClN3O4
CAS: 878-86-4
Molecular weight: 205
m/z	intensity
33	9
35	19
36	21
38	108
39	204
40	76
41	93
42	113
43	31
44	21
45	49
46	100
47	108
49	48
50	6
51	14
52	38
53	96
54	43
55	109
56	376
58	999
59	29
62	533
63	68
64	150
65	22
67	470
69	733
70	76
71	14
74	297
76	114
77	11
78	6
79	6
80	17
81	3
82	3
83	3
84	3
85	2
87	137
88	26
89	64
90	35
91	10
92	10
94	38
95	7
96	4
97	10
98	0
99	0
100	2
102	126
103	18
104	45
105	26
106	5
107	7
109	1
110	1
113	564
114	35
115	10
116	5
117	11
119	20
120	68
121	7
122	15
123	1
124	1
126	3
128	1
130	211
132	188
134	38
135	0
137	3
138	0
139	1
143	0
144	0
145	0
147	40
148	36
149	14
150	11
152	4
153	0
158	73
160	42
161	1
162	3
170	23
171	2
172	1
175	35
177	13
188	160
189	27
190	50
191	7
194	1
196	0
205	566
206	46
207	167
208	10
209	1
