Mass Spectrum: N-Benzyl-N-(trimethylsilylmethyl)amino-acetonitrile
Formula: C13H20N2Si
CAS: 87813-07-8
Molecular weight: 232
m/z	intensity
12	0
14	0
15	1
25	0
26	1
27	4
28	4
29	10
30	1
31	10
32	0
33	0
37	0
38	1
39	23
40	5
41	17
42	397
43	41
44	14
45	67
46	4
47	2
50	2
51	8
52	2
53	2
54	2
55	4
56	3
57	6
58	8
59	36
60	2
61	1
62	1
63	10
64	3
65	79
66	4
67	3
68	2
69	1
70	7
71	2
72	6
73	236
74	19
75	8
76	1
77	3
78	1
79	1
80	0
81	0
82	0
83	1
84	8
85	1
86	5
87	2
88	0
89	18
90	8
91	999
92	72
93	3
94	0
95	0
96	0
97	0
98	4
99	0
100	55
101	5
102	3
103	2
104	7
105	6
106	0
107	1
108	1
109	0
111	0
112	0
113	37
114	5
115	2
116	3
117	4
118	4
119	1
120	0
121	3
122	0
123	0
125	0
126	0
128	0
130	1
131	1
132	57
133	43
134	6
135	1
136	0
139	0
141	239
142	28
143	8
144	0
145	0
146	0
147	0
148	0
149	0
150	0
155	3
156	0
157	4
158	1
159	55
160	6
161	0
162	0
163	0
164	0
174	0
176	0
177	0
188	0
190	2
191	0
192	8
193	1
194	0
201	0
204	0
206	7
207	1
208	0
215	0
217	13
218	2
219	0
231	0
232	8
233	1
234	0
