Mass Spectrum: [1,3,2]Dioxaborino[5,4-d]-1,3,2-dioxaborin-4,8-dione, 2,6-dihexadecyl-
Formula: C36H66B2O6
CAS: 87841-18-7
Molecular weight: 616
m/z	intensity
26	3
27	34
28	3
29	153
30	3
36	0
38	0
39	21
40	7
41	266
42	66
43	999
44	28
45	2
51	0
52	0
53	11
54	22
55	231
56	92
57	704
58	28
60	0
65	3
66	4
67	38
68	22
69	152
70	59
71	279
72	14
73	1
77	1
78	1
79	9
80	4
81	30
82	18
83	67
84	25
85	137
86	11
87	3
89	0
91	4
92	1
93	11
94	6
95	26
96	12
97	43
98	12
99	21
100	1
101	1
102	0
103	0
105	2
106	1
107	7
108	4
109	15
110	7
111	18
112	8
113	15
114	3
115	4
116	1
117	1
118	0
119	3
120	2
121	6
122	3
123	11
124	5
125	12
126	5
127	8
128	3
129	2
130	0
131	1
132	1
133	3
134	1
135	5
136	4
137	17
138	7
139	18
140	25
141	49
142	4
143	3
144	0
145	2
146	1
147	3
148	2
149	5
150	5
151	12
152	9
153	22
154	29
155	16
156	3
157	1
159	1
160	0
161	2
162	1
163	5
164	5
165	15
166	20
167	36
168	14
169	12
170	2
171	1
173	0
174	1
175	1
176	1
177	5
178	4
179	11
180	16
181	28
182	9
183	9
184	2
185	1
186	0
188	0
189	2
190	2
191	5
192	5
193	11
194	15
195	21
196	9
197	8
198	1
199	0
202	0
203	2
204	2
205	5
206	7
207	14
208	14
209	19
210	8
211	5
212	1
213	0
214	0
215	1
216	1
217	1
218	2
219	4
220	6
221	15
222	13
223	12
224	4
225	3
226	0
227	0
228	0
229	0
230	0
231	1
232	1
233	4
234	7
235	16
236	10
237	12
238	3
239	2
245	1
246	2
247	4
248	8
249	17
250	13
251	19
252	4
253	2
254	0
255	0
257	0
259	1
260	1
261	3
262	7
263	17
264	14
265	23
266	5
267	2
268	1
272	0
273	0
274	1
275	2
276	6
277	13
278	15
279	24
280	4
281	0
287	1
288	1
289	3
290	5
291	9
292	12
293	21
294	5
295	1
299	0
300	0
301	1
302	1
303	2
304	3
305	7
306	9
307	19
308	5
309	1
310	0
315	0
316	1
317	2
318	3
319	5
320	8
321	13
322	3
323	1
329	0
330	1
331	1
332	1
333	3
334	5
335	9
336	3
337	1
338	0
339	0
343	0
344	1
345	3
346	5
347	9
348	5
349	6
350	3
351	0
358	1
359	1
360	2
361	3
362	8
363	18
364	19
365	31
366	5
367	1
368	1
370	0
371	0
372	1
373	2
374	3
375	4
376	3
377	3
378	1
383	0
384	0
385	0
386	1
387	1
388	2
389	3
390	8
391	17
392	8
393	4
394	4
395	1
400	1
401	1
402	1
403	2
404	5
405	10
406	4
407	2
408	1
411	1
412	1
413	1
414	1
415	1
416	1
417	2
418	7
419	13
420	7
421	3
422	0
428	0
429	1
430	1
431	2
432	8
433	18
434	8
435	3
436	2
437	1
438	0
440	0
443	1
444	1
445	2
446	6
447	8
448	4
449	1
456	1
457	2
458	2
459	3
460	4
461	7
462	4
463	0
464	0
470	0
471	1
472	1
473	1
474	3
475	5
476	6
477	2
479	0
481	0
482	1
484	2
485	2
486	1
487	1
488	2
489	4
490	6
491	2
492	0
497	0
498	1
499	2
500	1
501	2
502	2
503	5
504	7
505	2
506	0
507	1
508	1
509	2
510	1
511	1
512	1
513	2
514	1
515	1
516	2
517	5
518	8
519	2
525	0
526	1
527	2
528	2
529	2
530	3
531	7
532	9
533	3
534	1
535	1
536	0
538	0
540	1
541	1
542	1
543	1
544	2
545	5
546	7
547	3
548	0
551	0
553	0
554	0
555	1
556	0
557	0
558	1
559	3
560	5
561	2
562	0
563	0
568	1
569	3
570	6
571	8
572	3
573	2
574	3
575	1
576	0
580	2
581	1
582	1
585	0
586	1
587	2
588	3
589	1
592	0
595	0
596	1
597	2
598	3
599	1
600	1
602	1
603	1
604	0
606	0
608	0
610	1
611	2
614	54
615	409
616	994
617	348
618	80
619	14
620	2
