Mass Spectrum: 1,4-Bis-methoxymethoxy-benzene
Formula: C10H14O4
CAS: 87905-74-6
Molecular weight: 198
m/z	intensity
26	3
28	7
29	25
33	2
39	3
40	4
45	999
46	21
47	2
50	5
51	3
54	4
63	10
64	13
65	4
66	3
76	4
77	4
79	2
82	2
92	3
94	3
95	3
107	9
109	2
122	3
123	16
124	2
138	140
139	10
167	18
168	48
169	4
198	155
199	13
