Mass Spectrum: 2-(N-Benzyloxycarbonylamino)-propanol
Formula: C11H15NO3
CAS: 87905-97-3
Molecular weight: 209
m/z	intensity
25	0
26	6
27	11
28	21
29	24
30	6
31	36
33	1
37	3
38	5
39	37
40	8
41	21
42	48
43	29
44	40
45	11
46	3
47	1
48	1
49	1
50	14
51	34
52	12
53	10
54	2
55	3
56	6
57	9
58	7
59	11
60	1
61	2
62	4
63	21
64	6
65	81
66	4
67	0
68	0
69	1
70	9
71	1
72	0
73	4
74	6
75	4
76	3
77	69
78	14
79	106
80	12
81	0
82	0
83	3
84	2
86	52
87	6
88	16
89	35
90	26
91	999
92	98
93	4
94	0
95	2
96	0
97	0
98	1
99	0
100	1
101	13
102	1
103	2
104	1
105	12
106	2
107	79
108	146
109	11
110	1
112	0
114	1
115	1
116	1
117	1
118	1
119	1
122	0
123	1
124	1
125	1
126	0
127	0
128	1
130	1
133	1
134	136
135	14
136	1
137	1
138	0
139	1
140	0
141	0
142	1
144	1
145	1
146	1
148	0
149	0
150	1
151	1
152	1
153	0
154	0
155	0
156	1
157	1
158	0
159	0
160	0
161	0
165	0
169	0
170	0
171	1
173	0
176	1
177	1
178	196
179	27
180	3
208	0
209	22
210	3
211	0
