Mass Spectrum: Methyl(methyl 2,3-di-O-acetyl-4-O-methyl-.alpha.-D-mannopyranoside)uronate
Formula: C13H20O9
CAS: 87910-32-5
Molecular weight: 320
m/z	intensity
43	999
44	49
45	129
55	41
59	83
60	25
61	20
71	79
73	49
74	529
75	209
85	419
87	779
99	259
101	129
102	79
103	51
113	56
115	89
116	239
117	689
127	259
129	999
130	129
131	35
141	67
143	25
144	30
145	19
155	25
157	20
158	46
159	88
169	229
170	19
171	69
172	62
173	17
174	5
175	4
185	3
186	25
187	139
188	13
189	51
190	4
200	6
201	62
202	3
210	3
215	3
217	5
218	3
219	1
228	46
229	51
261	51
262	3
289	16
320	3
321	1
