Mass Spectrum: Methyl(methyl 2,4-di-O-acetyl-3-O-methyl-.alpha.-D-galactopyranoside)uronate
Formula: C13H20O9
CAS: 87910-31-4
Molecular weight: 320
m/z	intensity
41	24
42	49
43	999
44	59
45	109
55	69
56	24
57	39
58	24
59	109
60	29
69	55
70	24
71	139
72	17
73	67
74	359
75	619
76	39
81	11
83	55
84	11
85	139
86	17
87	509
88	89
89	29
90	39
97	24
98	55
99	199
100	49
101	229
102	24
103	89
111	39
112	24
113	49
115	149
116	139
117	69
129	689
130	999
131	39
132	24
133	17
141	69
144	42
145	55
155	49
157	139
158	259
159	109
169	219
170	11
173	14
174	5
187	36
189	86
200	42
201	55
216	11
217	5
228	0
229	6
261	12
289	24
290	1
