Mass Spectrum: Methyl(methyl 3,4-di-O-acetyl-2-O-methyl-.alpha.-D-mannopyranoside)uronate
Formula: C13H20O9
CAS: 87910-30-3
Molecular weight: 320
m/z	intensity
43	999
44	39
45	99
55	29
57	21
58	20
59	85
60	9
61	13
68	7
69	16
70	2
71	71
73	53
74	999
75	219
83	35
84	18
85	89
87	449
88	129
89	27
90	26
91	20
96	3
97	22
98	30
99	179
101	69
102	24
103	139
104	20
111	30
113	21
115	30
116	359
117	79
126	79
127	449
128	29
129	589
130	79
131	11
132	36
141	79
143	17
144	6
145	30
155	27
157	54
158	319
159	149
169	179
170	12
173	5
174	5
184	1
185	2
187	59
188	2
189	4
197	0
200	53
201	109
217	3
218	4
229	17
260	1
261	17
262	1
289	12
321	1
