Mass Spectrum: Methyl(methyl 2-O-acetyl-3,4-di-O-methyl-.alpha.-D-mannopyranoside)uronate
Formula: C12H20O8
CAS: 87910-35-8
Molecular weight: 292
m/z	intensity
43	429
44	14
45	129
55	25
57	24
59	51
61	5
71	41
73	79
74	479
75	999
76	31
81	3
83	7
84	11
85	299
86	79
87	329
88	449
89	89
96	2
97	4
98	19
99	59
101	299
102	19
103	19
104	19
111	9
113	24
114	4
115	9
116	299
117	229
118	9
119	5
126	4
127	44
128	5
129	299
130	44
131	16
133	15
141	44
142	3
143	11
144	6
145	16
155	11
157	9
158	6
159	44
160	2
161	31
162	1
163	4
169	11
172	3
173	4
175	3
187	61
188	4
191	3
200	16
201	9
203	2
204	19
206	4
219	3
229	19
230	1
233	29
234	2
261	9
262	0
292	0
