Mass Spectrum: Methyl(methyl 3-O-acetyl-2,4-di-O-methyl-.alpha.-D-mannopyranoside)uronate
Formula: C12H20O8
CAS: 87910-34-7
Molecular weight: 292
m/z	intensity
41	19
43	879
44	19
45	169
47	249
53	19
55	39
57	27
58	12
59	79
69	17
71	52
73	82
74	999
75	749
76	29
81	19
83	9
85	299
87	129
88	329
89	42
97	6
98	39
99	79
101	919
102	49
103	25
104	15
105	14
111	23
113	50
114	15
115	15
116	469
117	299
118	19
126	15
127	29
129	59
130	44
131	27
141	179
142	15
143	7
144	20
145	44
155	5
157	8
158	8
159	42
169	32
172	17
173	99
174	6
186	3
187	42
191	1
200	6
201	34
202	2
203	3
204	3
218	0
229	14
230	4
260	1
261	15
262	1
