Mass Spectrum: Butanamide, 2-hydroxy-N,2,3,3-tetramethyl-
Formula: C8H17NO2
CAS: 87920-05-6
Molecular weight: 159
m/z	intensity
25	4
27	69
29	122
30	82
31	44
32	651
33	7
39	82
40	11
41	299
42	57
43	371
44	48
45	45
51	5
53	21
55	214
56	26
57	198
58	154
59	92
60	46
67	18
69	64
70	6
71	53
72	26
73	3
83	479
84	32
85	67
86	22
87	37
88	16
97	5
98	5
100	6
101	999
102	115
103	599
104	25
113	17
126	22
131	64
132	5
144	9
159	13
160	3
