Mass Spectrum: Methyl(methyl 2,3,4-tri-O-acetyl-.alpha.-D-mannopyranoside)uronate
Formula: C14H20O10
CAS: 87936-90-1
Molecular weight: 348
m/z	intensity
41	19
42	19
43	999
44	109
45	89
55	39
57	22
59	75
60	32
61	29
68	13
69	17
71	79
73	69
74	169
75	79
83	69
84	59
85	149
86	15
87	129
88	7
89	5
90	39
95	10
96	9
97	29
98	39
99	89
100	22
101	22
102	149
103	329
111	25
112	59
113	69
115	669
116	329
117	45
126	79
127	999
128	89
129	29
131	9
132	109
133	8
139	7
141	12
143	89
144	299
145	209
146	13
153	6
154	5
155	169
156	13
157	509
158	129
159	12
161	6
169	379
170	39
171	9
173	32
174	45
185	8
186	269
187	89
188	8
197	62
198	7
203	7
204	5
215	32
217	59
218	5
228	65
229	99
230	12
243	0
245	5
246	7
248	0
257	8
288	3
289	59
290	9
317	19
