Mass Spectrum: Propanoic acid, 2-[(tetrahydro-2H-pyran-2-yl)oxy]-
Formula: C8H14O4
CAS: 87930-86-7
Molecular weight: 174
m/z	intensity
25	6
26	66
27	310
28	220
29	332
30	23
31	48
35	2
36	2
37	9
38	20
39	162
40	30
41	288
42	65
43	242
44	73
45	999
46	34
47	24
48	4
49	8
50	27
51	35
52	15
53	94
54	141
55	607
56	329
57	168
58	24
59	9
60	2
61	1
62	1
63	12
64	1
65	13
66	12
67	61
68	12
69	73
70	6
71	70
72	6
73	101
74	38
75	15
76	1
77	10
78	4
79	5
80	0
81	12
82	4
83	224
84	560
85	580
86	49
87	6
88	2
89	3
90	7
91	18
92	4
93	2
94	1
95	2
97	3
98	8
99	4
100	3
101	210
102	25
103	22
104	58
105	7
107	1
108	0
109	1
110	2
111	4
112	4
113	0
115	3
116	32
117	4
118	3
119	23
120	3
121	7
122	1
123	2
129	25
130	10
131	2
133	0
134	1
135	0
144	1
145	0
146	2
147	1
149	1
156	3
157	0
173	4
175	0
