Mass Spectrum: 3-Thiabicyclo[3.3.1]nonane 3,3-dioxide
Formula: C8H14O2S
CAS: 87947-24-8
Molecular weight: 174
m/z	intensity
51	35
52	20
53	130
54	260
55	435
56	160
63	30
65	50
66	80
67	950
68	160
69	80
77	60
78	30
79	490
80	60
81	170
82	120
91	40
93	80
94	999
95	260
96	10
107	30
108	50
109	200
110	20
131	130
132	20
157	40
174	450
175	43
176	22
177	2
