Mass Spectrum: Imidazole, 1-[4-dimethylaminobenzoyl]-
Formula: C12H13N3O
CAS: 87970-46-5
Molecular weight: 215
m/z	intensity
41	999
43	150
44	50
45	29
46	1
47	1
49	3
50	46
51	61
52	33
53	32
54	19
55	16
56	4
57	5
59	33
60	1
61	3
62	7
63	33
64	13
65	37
66	16
67	69
68	523
69	72
70	5
71	25
72	2
74	29
75	11
76	27
77	102
78	43
79	45
80	13
81	13
82	6
83	3
84	1
85	1
86	0
87	1
88	1
89	5
90	15
91	39
92	20
93	13
94	16
95	11
96	2
97	2
98	0
99	0
100	0
102	5
103	12
104	61
105	62
106	14
107	7
108	3
109	3
110	1
111	2
112	0
113	1
114	0
115	0
116	1
117	9
118	43
119	109
120	49
121	36
122	4
123	1
125	1
126	2
127	1
128	0
129	1
130	1
131	1
132	22
133	4
134	15
135	4
136	1
137	2
138	4
139	4
140	0
141	0
143	2
144	1
145	1
146	5
147	148
148	883
149	109
150	19
151	7
152	1
153	0
154	6
155	1
156	1
157	1
158	1
159	1
160	0
161	0
162	10
163	11
164	281
165	385
166	38
167	3
168	0
169	0
170	0
171	0
172	0
173	0
174	1
176	1
177	0
178	5
179	17
180	1
181	0
182	1
183	1
184	0
185	0
186	1
187	0
188	0
189	0
190	0
191	0
192	0
193	0
195	0
196	0
197	2
198	1
199	0
201	0
206	0
207	0
208	0
209	0
210	0
211	0
212	0
213	0
214	3
215	33
216	13
217	1
