Mass Spectrum: 7,16-Dimethyl-1,4,10,13-tetraoxa-7,16-diazacyclooctadecane-2,6,17-trione
Formula: C14H24N2O7
CAS: 87989-13-7
Molecular weight: 332
m/z	intensity
54	17
55	67
56	262
57	999
58	689
59	124
60	28
61	18
65	12
67	13
68	219
69	96
70	262
71	241
72	330
73	124
74	79
75	18
76	8
79	8
80	7
81	20
82	24
83	55
84	53
85	668
86	482
87	165
88	79
89	30
90	34
91	13
95	22
96	22
97	110
98	193
99	689
100	379
101	151
102	379
103	62
104	17
109	17
110	17
111	30
112	44
113	59
114	565
115	786
116	744
117	82
118	36
119	9
120	8
123	26
124	13
125	17
126	34
127	37
128	213
129	103
130	241
131	103
132	90
133	32
134	29
135	6
139	6
140	10
141	41
142	49
143	87
144	165
145	51
146	50
147	10
148	43
149	11
155	15
156	165
157	179
158	144
159	83
160	144
161	39
162	18
170	10
171	24
172	186
173	68
174	386
175	75
176	51
177	13
178	24
184	6
185	16
186	70
187	48
188	206
189	30
190	45
191	9
192	13
199	11
200	10
201	27
202	34
203	24
204	30
205	7
214	70
215	17
216	24
217	95
218	34
219	21
220	31
227	8
229	15
230	18
231	28
232	36
233	13
234	39
235	7
236	28
237	6
243	8
244	17
245	137
246	20
247	34
248	58
249	10
257	15
258	15
259	9
260	7
261	6
270	12
271	23
272	6
273	17
274	9
275	15
276	26
287	22
288	5
289	55
290	11
291	13
302	5
303	6
304	4
305	4
331	4
332	15
333	19
334	4
