Mass Spectrum: 7,13-Dimethyl-1,4,10-trioxa-7,13-diazacyclopentadecane-2,6,14-trione
Formula: C12H20N2O6
CAS: 87989-14-8
Molecular weight: 288
m/z	intensity
55	69
56	268
57	999
58	658
59	85
60	57
61	17
68	23
69	99
70	175
71	274
72	219
73	95
74	87
82	24
83	51
84	46
85	268
86	560
87	164
88	117
89	21
90	29
97	114
98	243
99	670
100	390
101	147
102	256
103	46
111	77
112	43
113	43
114	438
115	670
116	743
117	106
118	23
127	26
128	129
129	108
130	156
131	104
132	67
133	36
134	42
141	56
142	24
143	37
144	148
145	35
146	96
148	46
156	63
157	180
158	58
159	27
160	70
162	35
172	173
173	168
174	262
175	98
176	53
186	64
187	34
188	99
190	47
192	68
199	24
201	36
202	24
203	54
204	56
214	34
218	25
231	36
232	70
245	390
246	48
247	26
258	57
270	8
288	35
289	29
