Mass Spectrum: 3-Thiophenecarboxylic acid
Formula: C5H4O2S
CAS: 88-13-1
Molecular weight: 128
m/z	intensity
12	2
17	1
18	4
24	2
25	5
26	9
27	6
28	11
29	7
32	4
33	2
34	3
36	6
37	31
38	50
39	285
40	11
41	7
42	1
44	23
45	150
46	6
47	6
48	3
49	14
50	44
51	12
52	1
53	13
54	1
55	13
56	9
57	54
58	43
59	4
60	3
61	1
64	3
66	6
67	1
68	4
69	12
70	1
71	10
72	6
73	2
74	2
76	1
77	1
80	4
81	39
82	51
83	172
84	29
85	9
86	1
95	7
99	1
100	9
102	1
110	6
111	999
112	63
113	49
114	3
127	2
128	805
129	53
130	41
131	2
