Mass Spectrum: Benzenesulfonic acid, 2,5-diamino-
Formula: C6H8N2O3S
CAS: 88-45-9
Molecular weight: 188
m/z	intensity
24	6
25	3
26	27
27	131
28	121
29	8
30	6
32	41
33	4
34	12
36	10
37	4
38	10
39	24
40	19
41	34
42	13
43	9
44	55
48	416
49	5
50	22
51	20
52	67
53	82
54	62
55	15
56	6
57	6
61	3
62	6
63	16
64	999
65	18
66	49
67	16
68	4
69	7
71	3
76	4
77	4
78	14
79	55
80	186
81	78
82	9
83	3
90	9
91	17
92	4
93	4
95	5
105	24
106	112
107	129
108	503
109	37
188	88
189	8
190	5
