Mass Spectrum: 2-Amino-5-methylbenzenesulfonic acid
Formula: C7H9NO3S
CAS: 88-44-8
Molecular weight: 187
m/z	intensity
12	3
13	1
14	4
15	9
16	7
17	4
18	17
24	2
25	4
26	33
27	86
28	89
29	9
30	17
31	2
32	17
33	6
34	10
35	2
36	11
37	25
38	46
39	138
40	21
41	43
42	24
43	8
44	7
45	9
46	2
47	1
48	96
49	14
50	107
51	212
52	189
53	91
54	49
55	9
56	5
57	5
58	4
59	2
60	6
61	16
62	34
63	71
64	103
65	75
66	50
67	28
68	5
69	8
70	3
71	4
72	2
73	9
74	24
75	30
76	78
77	380
78	348
79	164
80	40
81	19
82	6
83	3
84	3
85	4
86	5
87	6
88	6
89	22
90	14
91	36
92	20
93	39
94	62
95	7
96	4
97	4
98	3
99	3
100	3
101	1
102	12
103	63
104	999
105	529
106	405
107	168
108	15
109	7
110	6
111	2
112	2
113	1
114	1
115	1
116	1
117	1
118	1
119	2
120	20
121	6
122	43
123	9
124	4
125	1
126	2
127	1
128	1
129	1
134	1
135	2
136	7
137	3
138	4
139	5
140	2
141	1
149	1
150	1
151	1
152	23
153	6
154	7
155	2
157	1
159	1
165	1
167	1
168	31
169	99
170	11
171	6
172	2
185	4
186	35
187	624
188	57
189	34
190	3
