Mass Spectrum: 2,4-Dimethylbenzenesulfonic acid
Formula: C8H10O3S
CAS: 88-61-9
Molecular weight: 186
m/z	intensity
17	2
18	7
26	3
27	57
28	3
29	4
32	2
36	2
37	3
38	13
39	110
40	10
41	24
42	1
43	5
44	9
47	8
50	41
51	118
52	40
53	48
54	4
55	8
56	4
57	7
60	7
61	21
62	4
63	86
64	20
65	60
66	8
67	4
69	6
71	4
73	3
74	17
75	16
76	18
77	305
78	263
79	134
80	7
81	1
82	4
83	4
85	2
86	6
87	8
88	3
89	32
90	9
91	72
92	18
93	15
94	2
95	2
96	2
97	3
98	3
101	6
102	36
103	339
104	999
105	224
106	24
107	33
108	4
111	2
119	5
120	152
121	126
122	36
123	7
125	3
134	2
135	5
138	2
139	2
140	3
141	3
149	6
150	42
151	78
152	10
153	9
154	1
155	1
168	27
169	10
170	2
171	9
185	2
186	783
187	81
188	40
189	5
