Mass Spectrum: cis-8a-Methyl-3-oxodecahydro-4a-naphthalenecarbonitrile
Formula: C12H17NO
CAS: 880-38-6
Molecular weight: 191
m/z	intensity
14	3
15	5
26	8
27	120
28	46
29	89
30	6
31	1
37	2
38	8
39	156
40	37
41	283
42	56
43	56
44	5
45	1
50	9
51	37
52	34
53	110
54	39
55	386
56	128
57	28
58	6
59	1
62	2
63	10
64	11
65	59
66	65
67	135
68	105
69	144
70	67
71	12
72	2
74	1
75	2
76	3
77	70
78	23
79	99
80	60
81	187
82	74
83	42
84	22
85	4
86	1
89	3
90	3
91	50
92	50
93	92
94	85
95	131
96	30
97	47
98	8
99	1
102	2
103	5
104	12
105	25
106	58
107	88
108	55
109	151
110	999
111	98
112	19
113	1
115	2
116	5
117	9
118	12
119	19
120	71
121	71
122	66
123	48
124	26
125	9
126	1
129	1
130	4
131	17
132	15
133	21
134	126
135	58
136	66
137	29
138	5
143	1
144	6
145	8
146	11
147	31
148	119
149	53
150	14
151	6
156	1
158	9
159	2
160	2
161	1
162	103
163	62
164	23
165	3
172	4
173	11
174	6
175	1
176	59
177	7
190	13
191	272
192	37
193	3
