Mass Spectrum: Formic acid, benzoyl-, (8'-phenylmenthyl) ester
Formula: C24H28O3
CAS: 88002-15-7
Molecular weight: 364
m/z	intensity
26	0
27	25
28	5
29	30
30	2
31	1
36	5
38	1
39	28
40	48
41	168
42	12
43	33
44	2
45	0
50	8
51	42
52	4
53	13
54	14
55	139
56	6
57	19
58	2
59	0
62	0
63	2
64	0
65	9
66	1
67	16
68	5
69	39
70	2
71	3
72	3
73	0
74	1
75	1
76	5
77	142
78	19
79	41
80	3
81	45
82	3
83	82
84	5
85	0
86	3
87	0
89	1
90	1
91	246
92	19
93	2
94	2
95	27
96	10
97	15
98	1
99	0
100	0
101	1
102	2
103	18
104	7
105	625
106	50
107	3
108	0
109	11
110	1
111	6
112	3
113	0
115	13
116	4
117	28
118	247
119	999
120	98
121	5
122	0
123	4
124	0
126	0
127	2
128	7
129	11
130	2
131	12
132	12
133	10
134	1
135	0
137	2
138	3
139	10
140	1
141	2
142	1
143	10
144	1
145	8
146	2
147	0
148	1
149	0
150	0
151	2
152	3
153	1
154	0
155	0
156	0
157	2
158	0
159	13
160	1
161	0
162	0
165	0
167	0
169	0
171	1
172	0
173	0
176	0
177	1
178	0
181	0
185	0
186	0
195	0
198	0
199	6
200	1
201	0
202	0
213	7
214	184
215	47
216	5
217	0
226	1
227	0
230	0
231	8
232	2
233	0
244	0
245	5
246	2
247	0
269	2
270	0
277	0
278	0
364	46
365	13
366	1
367	0
