Mass Spectrum: (1S,5R,10S)-1,5,8,8-Tetramethylbicyclo[8.1.0]undecane-2,6-dione
Formula: C15H24O2
CAS: 88010-66-6
Molecular weight: 236
m/z	intensity
41	505
43	299
53	100
55	422
56	138
67	218
69	640
81	202
83	315
95	370
96	281
97	189
109	999
110	395
123	345
124	128
125	180
135	180
137	197
138	123
139	127
149	210
150	327
151	242
165	88
180	117
194	165
203	31
208	16
218	31
221	146
236	367
