Mass Spectrum: Pentacyclo[7.5.0.0(2,7).0(3,5).0(4,8)]tetradeca-10,12-diene
Formula: C14H16
CAS: 88056-67-1
Molecular weight: 184
m/z	intensity
26	7
27	106
29	14
38	15
39	235
40	27
41	123
42	6
43	8
50	37
51	141
52	49
53	70
54	6
55	28
56	6
57	14
58	3
62	14
63	88
64	28
65	206
66	129
67	79
68	7
69	20
74	7
75	15
76	42
77	329
78	253
79	270
80	182
81	26
82	15
83	26
84	7
89	47
90	41
91	999
92	423
93	318
94	28
95	9
101	7
102	32
103	92
104	145
105	247
106	212
107	19
108	6
115	376
116	212
117	811
118	447
119	70
120	8
126	12
127	74
128	306
129	341
130	223
131	35
139	14
140	6
141	235
142	182
143	229
144	17
145	6
150	7
151	8
152	47
153	76
154	47
155	153
156	103
157	17
158	6
165	30
166	16
167	27
168	17
169	188
170	18
182	6
183	36
184	382
185	54
