Mass Spectrum: N-(2,6-Dimethylphenyl)-2-(tetrahydro-1H-pyrrolizin-7a(5H)-yl)acetamide
Formula: C17H24N2O
CAS: 88069-67-4
Molecular weight: 272
m/z	intensity
26	1
27	6
28	7
29	3
30	8
38	1
39	16
40	5
41	39
42	21
43	10
44	7
50	2
51	7
52	6
53	18
54	19
55	25
56	12
57	4
58	1
62	1
63	3
64	1
65	14
66	5
67	19
68	21
69	11
70	5
71	1
75	1
76	1
77	31
78	9
79	16
80	35
81	13
82	34
83	16
84	16
85	1
89	2
90	2
91	27
92	7
93	9
94	11
95	7
96	68
97	38
98	3
102	2
103	9
104	6
105	11
106	17
107	7
108	100
109	50
110	999
111	80
112	3
115	1
116	2
117	4
118	10
119	8
120	36
121	29
122	15
123	4
124	74
125	19
126	2
128	1
130	2
131	1
132	4
133	1
134	6
135	1
142	1
143	1
144	5
145	4
146	3
147	4
148	6
149	1
150	1
151	1
152	56
153	6
154	1
160	1
161	1
163	7
164	1
229	4
230	1
231	1
243	1
244	3
257	2
272	36
273	7
274	1
