Mass Spectrum: 7,8-Bis(trimethylsilyl)bicyclo[4.2.1]nona-2,4,7-triene
Formula: C15H26Si2
CAS: 88061-83-0
Molecular weight: 262
m/z	intensity
15	4
26	3
27	1
29	11
31	13
37	1
38	2
39	21
40	3
41	11
42	2
43	87
44	21
45	173
46	12
50	3
51	12
52	4
53	22
54	3
55	23
56	3
57	11
58	21
59	154
60	12
61	6
62	2
63	8
64	3
65	26
66	5
67	22
68	3
69	19
70	7
71	7
72	13
73	74
74	64
75	29
76	3
77	14
78	6
79	11
81	13
82	2
83	64
84	7
85	9
89	5
90	3
91	264
92	999
93	80
94	4
95	10
96	14
97	50
98	6
99	7
100	1
105	18
106	2
107	8
108	3
109	9
115	19
116	7
117	8
119	10
125	10
131	32
132	6
133	11
135	10
139	4
155	129
156	25
157	15
158	6
159	78
160	13
161	5
169	14
170	4
171	54
172	13
173	42
174	47
175	11
176	3
188	13
189	26
190	6
191	2
247	30
248	6
249	2
262	131
263	34
264	13
