Mass Spectrum: 3-Butyl-4-hydroxy-4,6,6-trimethylhexahydropyrimidin-2-thione
Formula: C11H22N2OS
CAS: 88070-30-8
Molecular weight: 230
m/z	intensity
38	10
39	140
40	42
41	440
42	290
43	999
44	180
45	91
46	7
47	22
50	6
51	13
52	7
53	89
54	58
55	220
56	160
57	230
58	740
59	51
60	110
61	92
62	23
65	22
66	16
67	78
68	49
69	42
70	100
71	61
72	470
73	38
74	20
75	30
76	22
77	58
78	12
79	32
80	29
81	45
82	74
83	130
84	42
85	100
86	66
87	14
88	22
89	68
90	130
91	49
92	12
93	9
94	23
95	29
96	45
97	42
98	61
99	280
100	240
101	42
102	25
103	100
104	14
105	7
106	10
107	7
108	12
109	14
110	17
111	9
112	30
113	23
114	32
115	52
116	26
117	26
118	11
119	12
121	4
122	6
123	16
124	15
125	7
126	4
127	10
128	7
129	22
130	42
131	220
132	74
133	58
134	7
138	9
139	42
140	16
141	110
142	22
143	65
144	12
145	19
146	7
152	7
153	4
154	14
155	22
156	36
157	29
158	9
159	49
160	7
165	3
169	16
170	6
171	35
172	16
173	16
179	16
181	22
183	10
187	43
188	13
197	79
198	10
201	6
211	9
212	48
213	43
214	10
215	13
229	110
230	260
231	39
232	14
233	2
