Mass Spectrum: 2-Thiophenecarboxylic acid, phenyl ester
Formula: C11H8O2S
CAS: 881-89-0
Molecular weight: 204
m/z	intensity
25	2
26	17
27	11
29	3
39	630
40	32
41	19
42	5
50	46
51	61
52	33
53	31
55	12
56	4
57	55
58	14
60	5
61	7
62	21
63	40
64	15
65	97
66	20
67	2
69	10
71	3
73	2
74	5
75	7
76	2
77	36
78	11
79	49
80	7
81	19
82	39
83	140
84	19
85	8
91	4
93	15
94	22
95	3
103	2
105	9
108	2
109	4
110	9
111	999
112	156
113	120
114	7
115	2
119	4
121	2
128	13
130	3
131	2
147	3
161	3
203	3
204	144
205	18
206	9
