Mass Spectrum: 17-Methyl-3,17-dihydroxy-5-androstene
Formula: C20H32O2
CAS: 881026-22-8
Molecular weight: 304
m/z	intensity
41	399
43	999
45	71
51	16
52	7
53	129
55	336
57	145
58	43
59	39
60	4
61	4
63	4
64	1
65	54
66	6
67	223
68	20
69	111
71	146
72	27
73	7
76	1
77	166
79	371
81	291
83	75
85	56
86	2
87	6
89	5
91	326
92	18
93	242
94	64
95	165
96	17
97	67
98	9
99	11
100	3
101	2
103	34
105	395
106	91
107	280
108	73
109	78
110	17
111	17
112	3
113	9
115	57
116	26
117	115
118	49
119	191
120	121
121	117
122	43
123	55
124	25
125	29
127	13
128	32
129	60
130	29
131	147
132	53
133	186
134	78
135	144
136	26
137	17
138	9
139	5
141	30
142	24
143	155
144	54
145	242
146	52
147	109
148	42
149	38
150	13
151	19
152	2
153	11
154	4
155	21
156	49
157	105
158	132
159	197
160	88
161	144
162	36
163	28
164	10
165	13
166	5
167	6
168	3
169	45
170	5
171	119
172	48
173	116
174	54
175	109
176	49
177	35
178	18
179	14
180	1
181	8
182	3
183	30
184	13
185	75
186	73
187	99
188	30
189	29
190	10
191	7
192	11
193	18
194	2
195	8
197	125
198	29
199	56
200	22
201	56
202	19
203	32
204	11
205	7
209	3
210	1
211	106
212	16
213	530
214	65
215	216
216	38
217	16
218	5
219	11
220	1
223	2
225	14
226	43
227	104
228	185
229	140
230	35
231	200
232	45
233	17
234	4
237	7
238	1
239	19
240	8
241	10
242	11
243	16
244	33
245	27
246	118
247	28
248	4
251	5
253	549
254	106
255	30
256	7
257	12
258	5
259	4
260	4
261	4
262	1
267	8
268	93
269	36
270	14
271	264
272	53
273	9
274	2
284	2
285	7
286	282
287	62
288	41
289	57
290	13
300	3
302	11
303	8
304	425
305	87
306	9
