Mass Spectrum: (1-Bromo-pentyl)-cyclopropane
Formula: C8H15Br
CAS: 88106-30-3
Molecular weight: 190
m/z	intensity
40	566
41	470
55	690
56	238
67	421
68	169
69	999
70	79
81	250
83	151
119	49
121	50
148	570
150	590
190	169
192	159
