Mass Spectrum: 3.beta.-Acetoxy-5-cholenamide
Formula: C26H41NO3
CAS: 88108-04-7
Molecular weight: 415
m/z	intensity
41	232
43	999
44	316
45	17
49	16
53	54
55	243
56	5
57	117
59	403
60	39
65	15
67	143
68	12
69	100
70	14
71	5
72	199
73	25
77	74
78	14
79	188
80	16
81	211
82	18
83	36
84	14
85	15
86	14
91	152
92	23
93	101
94	29
95	107
96	10
97	23
98	10
100	103
101	9
103	16
104	5
105	212
106	49
107	145
108	21
109	57
111	5
114	11
115	23
116	14
117	62
118	23
119	56
120	44
121	63
122	14
123	36
126	18
128	17
129	30
130	14
131	79
132	23
133	87
134	27
135	49
137	9
140	9
141	29
142	22
143	81
144	27
145	105
146	7
147	85
148	24
149	32
157	41
158	58
159	72
160	51
161	62
162	16
163	17
169	15
171	31
173	20
174	8
175	24
176	4
177	19
180	4
183	4
185	33
186	8
187	19
189	18
193	27
197	20
199	31
201	16
206	5
211	4
212	5
213	84
214	22
215	18
217	26
225	4
228	16
229	4
232	14
233	4
234	28
253	21
255	65
256	22
296	23
297	11
311	5
323	10
338	4
340	33
341	5
355	313
356	86
357	20
