Mass Spectrum: Methyl 3-butoxymethyl-7-phthalimido-3-cephem-4-carboxylate
Formula: C21H22N2O6S
CAS: 88109-48-2
Molecular weight: 430
m/z	intensity
57	999
83	350
85	350
104	499
132	298
149	700
160	401
172	630
187	225
189	225
207	175
214	153
244	254
245	258
340	125
430	47
