Mass Spectrum: 1-Fluoro-2,8,9-trioxa-5-aza-1-germabicyclo[3.3.3]undecane
Formula: C6H12FGeNO3
CAS: 88103-00-8
Molecular weight: 239
m/z	intensity
39	15
40	46
41	162
42	687
43	181
44	198
45	35
52	4
54	42
55	33
56	212
57	34
58	46
68	7
69	6
70	30
71	8
72	16
73	9
74	10
75	6
79	5
80	6
84	23
85	11
86	999
87	92
89	178
90	13
91	231
92	54
93	250
95	51
98	5
100	18
102	4
107	4
113	4
114	6
115	5
116	17
117	9
118	4
119	20
120	3
121	24
122	7
123	26
125	5
127	4
128	3
129	7
130	8
131	16
132	174
133	25
134	226
135	87
136	287
137	20
138	61
140	8
142	44
143	5
144	58
145	18
146	63
147	7
148	15
149	7
150	6
156	5
158	9
160	9
162	8
164	7
166	7
173	4
174	4
175	133
176	16
177	177
178	64
179	222
180	17
181	44
203	6
205	194
206	14
207	265
208	87
209	332
210	19
211	66
216	33
218	40
219	12
220	53
222	16
235	5
237	22
238	8
239	30
241	6
