Mass Spectrum: 2-Cyclohexen-1-ol, 1-butyl-
Formula: C10H18O
CAS: 88116-46-5
Molecular weight: 154
m/z	intensity
26	3
27	53
29	50
30	1
31	4
38	4
39	62
40	14
41	108
42	11
43	42
44	0
45	1
50	6
51	23
52	12
53	33
54	7
55	80
56	9
57	17
58	4
62	1
63	8
64	1
65	22
66	12
67	49
68	27
69	66
70	5
71	4
74	1
75	0
76	1
77	80
78	36
79	277
80	28
81	19
82	5
83	9
84	27
85	4
86	0
89	0
91	68
92	14
93	67
94	111
95	23
96	11
97	999
98	70
99	4
100	0
102	0
103	2
104	1
105	11
106	3
107	126
108	9
109	0
111	8
112	2
115	0
116	0
117	0
121	7
123	0
126	13
127	1
135	0
136	82
137	10
138	0
154	1
