Mass Spectrum: Glycine, N-methyl-N-(3-methyl-1-oxobutyl)-, methyl ester
Formula: C9H17NO3
CAS: 88127-28-0
Molecular weight: 187
m/z	intensity
31	44
33	12
37	4
38	8
39	77
40	28
41	204
42	134
43	160
44	60
45	160
46	8
47	7
50	6
51	7
52	10
53	23
54	125
55	122
56	136
57	156
58	87
59	80
60	18
65	4
67	20
68	15
69	31
70	16
71	15
72	999
73	958
74	78
75	12
80	12
81	3
82	18
83	13
84	16
85	268
86	165
87	24
88	107
89	16
90	8
94	9
96	42
97	18
98	29
99	4
100	35
101	19
102	61
103	9
104	7
109	1
110	6
111	3
112	83
113	536
114	48
115	8
116	20
126	23
127	24
128	164
129	18
130	10
131	4
140	70
141	10
144	4
145	464
146	39
147	7
154	19
155	62
156	27
157	4
172	61
173	10
186	8
