Mass Spectrum: (5-Methylcyclopent-1-enyl)methanol
Formula: C7H12O
CAS: 88125-84-2
Molecular weight: 112
m/z	intensity
37	25
38	81
39	851
40	151
41	990
42	166
43	259
44	25
45	38
49	9
50	94
51	207
53	435
54	51
55	370
56	125
57	157
58	16
61	7
62	22
63	51
64	11
65	157
66	101
67	435
68	53
69	222
70	250
71	88
72	5
73	7
74	9
77	342
78	79
79	953
80	148
81	999
82	92
83	129
84	129
85	9
89	5
91	88
92	13
93	92
94	148
95	120
96	14
97	518
98	40
111	53
112	333
113	25
