Mass Spectrum: Methyl 5-acetoxyhexadecanoate
Formula: C19H36O4
CAS: 88167-58-2
Molecular weight: 328
m/z	intensity
29	60
41	110
42	10
43	999
51	5
52	13
53	8
54	60
55	292
56	59
58	27
59	18
61	14
65	9
66	3
67	88
68	76
69	335
70	42
72	7
74	263
75	29
79	19
80	9
81	105
82	53
83	218
84	103
85	17
86	4
87	208
92	5
93	19
94	13
95	129
96	85
97	112
98	122
100	8
101	76
102	10
104	3
105	4
107	17
108	10
109	50
110	60
111	75
112	29
113	5
114	25
115	69
117	8
118	2
120	3
121	19
122	6
123	48
124	33
125	75
126	30
127	60
128	125
129	262
130	49
131	7
133	10
134	20
135	9
136	7
137	23
138	33
139	22
140	5
141	437
142	49
143	39
144	70
145	32
146	1
147	2
148	8
150	4
151	31
152	66
153	13
154	35
155	63
156	6
157	1
158	15
159	83
160	6
161	3
165	14
166	10
168	7
169	29
170	4
171	20
172	22
173	618
174	45
175	8
179	7
180	4
181	2
183	15
185	8
186	38
187	87
188	7
189	5
191	7
192	38
193	9
194	67
195	23
197	12
198	6
199	4
201	40
202	9
203	1
204	2
206	6
207	6
208	5
209	18
210	6
211	3
215	109
216	15
217	9
218	43
219	6
225	7
226	7
229	31
231	2
235	8
236	249
237	165
238	28
239	6
241	43
242	13
243	7
250	5
253	60
254	9
255	10
256	6
257	3
268	56
269	28
271	12
280	4
285	62
286	18
