Mass Spectrum: Methyl 10-acetoxyhexadecanoate
Formula: C19H36O4
CAS: 88167-63-9
Molecular weight: 328
m/z	intensity
38	9
41	126
42	22
43	999
53	8
54	18
55	255
56	63
57	48
58	28
59	32
61	16
67	35
68	60
69	158
70	30
71	66
72	8
73	10
74	323
75	52
81	68
82	45
83	125
84	72
85	10
86	12
87	65
88	10
93	8
95	13
96	62
97	99
98	132
99	22
102	6
107	6
109	63
110	20
111	6
112	32
114	8
115	195
116	8
119	16
121	18
122	9
123	9
124	25
125	42
126	22
127	9
128	19
130	12
133	6
135	6
136	20
137	19
138	42
139	28
141	23
143	16
146	5
147	8
148	20
149	23
153	12
157	10
163	4
165	9
166	70
167	73
170	7
171	9
175	35
179	6
180	9
186	29
187	5
192	30
193	42
194	58
195	26
198	32
199	78
200	6
211	276
212	39
214	17
218	22
219	9
225	20
229	36
236	185
237	153
238	26
243	266
244	29
253	128
254	22
256	15
268	20
269	6
285	89
286	13
297	1
