Mass Spectrum: Methyl 11-acetoxyhexadecanoate
Formula: C19H36O4
CAS: 88167-64-0
Molecular weight: 328
m/z	intensity
38	15
41	203
42	40
43	999
45	11
53	12
54	42
55	376
56	75
57	95
58	33
59	53
61	52
67	93
68	72
69	285
70	56
71	40
72	9
73	23
74	435
75	70
79	9
80	11
81	97
82	74
83	209
84	165
85	28
87	190
88	18
93	13
94	17
95	98
96	113
97	193
98	233
99	23
101	181
102	10
105	6
107	12
108	10
109	55
110	53
111	105
112	65
113	11
114	10
115	31
118	5
119	9
121	24
122	11
123	52
124	32
125	56
126	22
127	10
128	20
129	31
130	23
133	10
134	14
135	13
136	11
137	29
138	48
139	32
140	9
141	36
142	8
143	48
144	9
147	6
148	9
149	7
151	20
152	70
153	20
154	6
155	9
157	11
161	5
162	11
163	21
165	16
166	13
167	6
169	6
171	8
172	5
179	6
180	59
181	46
182	7
185	19
186	6
189	20
192	19
193	11
194	60
195	17
199	3
207	10
208	7
211	6
212	19
213	43
214	6
218	20
219	9
222	13
225	170
226	28
228	12
236	185
237	128
238	23
239	10
240	8
241	13
257	173
258	28
267	12
268	30
269	5
270	10
285	23
