Mass Spectrum: Methyl 9-acetoxyhexadecanoate
Formula: C19H36O4
CAS: 88167-62-8
Molecular weight: 328
m/z	intensity
38	10
41	170
42	19
43	999
45	8
53	9
54	28
55	300
56	55
57	86
58	36
59	27
60	8
61	10
67	52
68	51
69	213
70	37
71	10
73	9
74	278
75	27
79	8
80	6
81	49
82	10
83	125
84	90
85	55
86	10
87	146
88	15
94	6
95	29
96	32
97	90
98	112
99	10
101	27
108	13
109	18
110	33
111	70
112	46
113	9
114	6
115	32
116	9
123	20
124	15
125	14
126	14
128	22
129	156
130	23
134	23
135	30
136	8
137	29
138	22
139	11
141	33
143	30
148	8
149	6
152	158
153	102
154	6
157	22
158	45
161	23
162	7
166	8
167	8
172	8
182	6
184	36
185	105
192	17
193	8
194	43
197	332
198	35
199	20
211	12
212	6
218	13
219	8
229	326
230	47
231	6
236	153
237	116
238	156
239	31
242	11
244	6
253	95
254	13
255	7
268	21
269	6
271	60
272	10
285	29
286	5
