Mass Spectrum: Histamine, N-acetyl-2,5-bis(trifluoromethyl)-
Formula: C9H9F6N3O
CAS: 88181-41-3
Molecular weight: 289
m/z	intensity
41	75
42	163
43	999
44	30
45	24
46	7
47	1
48	1
50	9
51	18
52	56
53	30
54	46
55	18
56	23
57	23
58	15
59	10
60	615
61	22
62	3
63	3
64	33
65	6
66	11
67	6
68	4
69	193
70	12
71	12
72	667
73	52
74	5
75	10
76	31
77	19
78	13
79	13
80	2
81	7
82	5
83	7
84	5
85	3
86	1
87	4
88	12
89	15
90	7
91	8
92	2
93	3
94	2
95	5
96	28
97	6
98	3
99	2
100	2
101	5
102	137
103	12
104	2
105	3
106	4
107	9
108	7
109	3
110	1
111	4
112	2
113	2
114	9
115	31
116	7
117	9
118	2
119	5
120	6
121	5
122	2
123	3
124	3
125	2
126	2
127	3
128	7
129	6
130	3
131	2
132	1
133	3
134	3
135	2
136	1
137	1
138	32
139	3
140	1
141	7
142	2
143	2
144	1
145	1
146	2
147	9
148	3
149	6
150	6
151	2
152	2
153	1
154	1
155	1
156	1
157	6
158	3
159	2
160	1
161	3
162	4
163	4
164	4
165	3
166	2
167	6
168	1
169	1
170	0
171	3
172	0
173	1
174	0
175	1
176	1
177	3
178	20
179	6
180	6
181	1
182	0
183	1
184	1
185	2
186	13
187	2
188	4
189	4
190	2
191	7
192	1
193	0
194	0
195	0
196	1
197	25
198	67
199	20
200	3
201	0
202	0
203	1
204	2
205	1
206	14
207	7
208	94
209	15
210	19
211	58
212	5
213	0
215	0
216	0
217	39
218	400
219	30
220	3
221	1
222	1
223	1
224	1
225	0
226	5
227	4
228	46
229	15
230	106
231	18
232	2
233	1
234	1
235	0
236	0
237	1
238	0
239	2
240	1
241	0
244	0
245	3
246	7
247	2
248	2
249	0
252	1
253	2
254	10
255	1
256	0
268	0
269	6
270	25
271	3
272	1
274	1
276	1
284	0
285	1
286	0
288	2
289	160
290	30
291	15
292	1
