Mass Spectrum: 2-Formylcyclopropane-1,1-dicarboxylic acid, diethyl ester
Formula: C10H14O5
CAS: 882-85-9
Molecular weight: 214
m/z	intensity
26	49
27	375
28	17
29	999
30	34
31	66
37	16
38	52
39	345
40	145
41	267
42	93
43	101
44	29
45	88
46	8
50	10
51	22
52	7
53	52
54	20
55	163
56	32
57	47
58	12
59	8
60	9
63	6
65	7
66	26
67	137
68	313
69	159
70	17
71	24
72	13
73	27
74	11
75	6
77	18
79	13
81	8
82	9
83	97
84	391
85	660
86	186
87	16
88	12
91	7
94	76
95	193
96	139
97	70
98	22
99	144
100	14
101	66
102	48
103	7
105	10
107	8
108	7
110	6
111	223
112	286
113	242
114	145
115	24
116	7
122	10
123	91
124	23
125	19
126	14
127	170
128	17
129	104
130	34
131	6
138	11
139	94
140	653
141	165
142	24
143	7
145	6
157	57
158	147
159	15
160	8
163	9
165	9
166	5
167	13
168	42
169	606
170	74
171	12
185	18
186	203
187	38
