Mass Spectrum: 1-Hydroxycyclododecanecarbonitrile
Formula: C13H23NO
CAS: 882-83-7
Molecular weight: 209
m/z	intensity
26	38
27	441
28	146
29	371
30	42
31	22
34	1
36	2
37	2
38	6
39	202
40	51
41	988
42	357
43	752
44	59
45	26
46	13
47	3
48	4
50	5
51	18
52	20
53	105
54	189
55	999
56	621
57	410
58	334
59	137
60	44
61	3
62	2
63	5
64	4
65	30
66	37
67	258
68	176
69	542
70	517
71	401
72	135
73	20
74	6
75	2
76	4
77	31
78	34
79	121
80	98
81	213
82	330
83	396
84	356
85	270
86	46
87	7
88	1
89	1
90	1
91	23
92	19
93	98
94	107
95	151
96	286
97	423
98	635
99	174
100	44
101	8
102	1
103	2
104	3
105	12
106	19
107	66
108	108
109	83
110	189
111	409
112	200
113	76
114	34
115	7
116	2
117	5
118	4
119	7
120	51
121	81
122	93
123	43
124	314
125	248
126	132
127	35
128	11
129	2
130	1
131	7
132	4
133	6
134	60
135	96
136	78
137	39
138	280
139	144
140	64
141	19
142	4
143	1
145	5
146	3
147	2
148	59
149	46
150	163
151	24
152	238
153	66
154	26
155	8
159	2
160	1
161	1
162	43
163	21
164	53
165	12
166	191
167	38
168	19
169	2
174	2
176	13
177	3
178	4
179	1
180	110
181	21
182	138
183	38
184	6
185	1
190	9
191	3
192	24
193	4
194	24
195	3
196	0
208	12
209	7
210	1
