Mass Spectrum: 1-N-Phenyl-4-(trichlorovinyl)benzoamide
Formula: C15H10Cl3NO
CAS: 88218-53-5
Molecular weight: 325
m/z	intensity
51	266
54	433
55	606
56	266
57	666
65	466
69	266
70	466
71	333
77	700
83	266
85	233
91	800
92	400
99	266
100	300
105	999
106	266
107	300
120	533
121	466
135	533
149	800
154	600
163	333
165	266
167	233
170	666
172	433
233	999
235	999
237	333
325	200
327	200
329	60
