Mass Spectrum: 3-Methoxymethcathinone
Formula: C11H15NO2
CAS: 882302-56-9
Molecular weight: 193
m/z	intensity
15	7
18	1
26	1
27	7
28	26
29	14
30	56
31	1
32	1
37	1
38	6
39	8
40	2
41	8
42	34
43	20
44	2
50	12
51	10
52	2
53	4
54	3
55	5
56	48
57	15
58	999
59	37
60	1
61	1
62	5
63	30
64	36
65	10
66	2
74	4
75	4
76	11
77	54
78	9
79	4
80	1
89	2
90	1
91	5
92	51
93	5
94	2
102	1
103	2
104	1
105	2
106	1
107	27
108	6
109	1
115	1
117	1
118	1
119	1
120	1
121	4
122	1
131	1
132	1
133	2
134	2
135	25
136	3
146	1
147	1
148	1
150	2
162	1
163	1
164	1
177	1
178	2
193	1
