Mass Spectrum: 2-(Methylamino)cyclohexan-1-ol
Formula: C7H15NO
CAS: 882409-15-6
Molecular weight: 129
m/z	intensity
29	25
30	34
37	2
38	5
39	92
40	29
41	148
42	164
43	81
44	273
45	7
50	3
51	8
52	6
53	20
54	22
55	42
56	102
57	404
58	59
59	8
60	5
65	3
67	15
68	28
70	999
71	59
72	12
73	33
77	5
79	14
80	5
81	14
82	12
83	5
84	29
86	111
87	6
96	2
98	8
100	19
110	3
112	7
114	6
129	263
130	26
131	3
