Mass Spectrum: (S,E)-6-Hydroxy-6-methyl-2-((2S,5R)-5-methyl-5-vinyltetrahydrofuran-2-yl)hept-4-en-3-one
Formula: C15H24O3
CAS: 88243-64-5
Molecular weight: 252
m/z	intensity
26	3
27	45
28	8
29	58
30	2
31	21
37	1
38	4
39	115
40	28
41	350
42	49
43	999
44	29
45	24
46	1
50	7
51	23
52	15
53	135
54	40
55	660
56	37
57	165
58	17
59	74
60	3
61	2
62	3
63	6
64	2
65	65
66	23
67	404
68	214
69	377
70	59
71	164
72	75
73	6
74	2
76	2
77	92
78	13
79	128
80	101
81	282
82	97
83	146
84	20
85	556
86	36
87	9
88	1
89	2
91	115
92	21
93	846
94	103
95	376
96	195
97	115
98	41
99	107
100	8
101	2
103	4
104	2
105	32
107	169
108	43
109	215
110	119
111	757
112	63
113	875
114	65
115	11
117	4
118	2
119	13
120	17
121	65
122	67
123	113
124	123
125	199
126	47
127	78
128	8
129	4
131	9
134	4
136	14
137	23
138	192
139	35
140	5
141	14
142	125
143	13
144	2
147	8
149	18
150	7
151	74
152	13
154	1
155	2
159	4
161	9
162	3
163	8
164	5
165	12
166	106
167	14
168	2
169	6
172	1
173	5
174	2
175	7
176	10
177	6
178	4
179	5
181	1
184	6
188	1
191	6
192	2
193	43
194	8
195	1
201	4
205	3
206	3
209	5
210	1
216	8
217	2
219	12
220	2
221	1
225	4
233	1
234	29
235	5
237	83
238	15
239	2
252	2
