Mass Spectrum: 1,4-Dihydro-1-methylcinnolin-4-oxo-3-carboxylic acid
Formula: C10H8N2O3
CAS: 883-18-1
Molecular weight: 204
m/z	intensity
12	4
14	7
15	114
16	6
17	10
18	13
26	18
27	58
28	168
29	29
30	41
36	4
37	54
38	81
39	199
40	28
41	29
42	53
43	13
44	25
45	131
48	3
49	21
50	195
51	287
52	93
53	40
54	73
55	20
56	5
57	6
60	6
61	38
62	94
63	261
64	229
65	93
66	54
67	10
68	4
70	3
71	2
73	19
74	84
75	115
76	179
77	549
78	320
79	74
80	11
81	4
82	3
83	3
84	4
85	9
86	9
87	17
88	47
89	57
90	137
91	78
92	107
93	15
97	3
98	4
99	10
100	8
101	8
102	65
103	79
104	999
105	842
106	103
107	9
112	5
114	9
115	27
116	87
117	29
118	54
119	29
120	13
128	3
129	18
130	15
131	243
132	229
133	503
134	85
135	9
141	2
142	20
143	314
144	45
145	14
146	2
157	5
159	58
160	988
161	98
162	9
178	2
185	3
187	9
204	104
205	18
206	2
