Mass Spectrum: exo-2-Aminonorbornane, N-tosyl-
Formula: C14H19NO2S
CAS: 88303-21-3
Molecular weight: 265
m/z	intensity
41	147
42	29
43	39
44	23
45	4
47	0
48	1
49	3
50	10
51	27
52	11
53	35
54	29
55	91
56	28
57	5
58	0
59	0
60	0
61	1
62	7
63	38
64	15
65	216
66	45
67	172
68	43
69	23
70	4
71	2
73	1
74	2
75	3
76	3
77	53
78	16
79	54
80	50
81	285
82	82
83	56
84	7
85	2
86	3
87	1
88	1
89	61
90	32
91	680
92	147
93	139
94	142
95	30
96	5
97	2
98	1
99	0
102	0
103	1
104	4
105	16
106	76
107	25
108	30
109	29
110	999
111	112
112	4
113	0
115	3
116	1
117	3
118	8
119	2
120	7
121	4
122	1
123	2
124	4
125	1
126	0
127	0
128	1
129	1
130	4
131	3
132	26
133	72
134	7
135	0
137	0
138	1
139	39
140	13
141	4
142	2
143	2
144	4
145	1
146	2
147	2
149	1
152	0
154	1
155	466
156	50
157	53
158	8
159	3
160	0
164	0
169	1
170	1
171	7
172	23
173	7
174	2
182	1
183	5
184	293
185	50
186	21
187	3
197	9
198	6
199	1
200	7
223	3
224	16
225	2
226	1
236	10
237	2
238	0
250	2
261	0
262	6
263	3
264	4
265	85
266	21
267	6
268	1
