Mass Spectrum: 4H-1,2,4-Triazole-3-thiol, 5-amino-4-cyclohexyl-
Formula: C8H14N4S
CAS: 88312-57-6
Molecular weight: 198
m/z	intensity
33	24
34	7
35	1
36	2
39	228
41	427
43	278
45	89
46	7
47	6
48	1
50	11
51	34
53	109
55	375
57	105
58	77
59	84
60	71
61	19
63	12
65	25
67	77
68	12
69	15
70	11
72	17
74	55
75	14
77	39
79	47
81	56
82	13
83	43
85	74
86	27
87	15
88	1
89	0
90	3
91	5
92	1
93	1
94	1
95	2
96	5
97	4
98	17
99	4
100	7
101	1
102	1
105	8
106	2
107	0
108	0
109	0
110	2
111	5
116	999
117	163
118	47
119	6
120	1
121	1
122	4
123	3
124	1
125	1
127	2
128	1
129	1
135	0
137	1
138	2
139	0
140	0
141	4
142	1
143	1
148	1
149	3
150	17
151	1
152	1
153	0
155	3
156	1
157	3
158	2
159	1
163	0
164	2
165	6
166	1
169	0
193	1
194	1
195	5
196	8
198	220
199	18
200	4
