Mass Spectrum: Phenylalanimide, N-t-butoxycarbonyl-N'-ethyloxycarbonylmethyl-4-nitro-
Formula: C18H25N3O7
CAS: 88319-53-3
Molecular weight: 395
m/z	intensity
41	192
42	21
43	34
44	10
45	8
46	2
47	2
48	1
49	7
50	3
51	10
52	4
53	5
54	2
55	22
56	74
57	999
58	72
59	58
60	10
61	4
62	2
63	9
64	5
65	13
66	2
67	2
68	1
69	1
70	3
71	0
72	1
73	3
74	49
75	3
76	7
77	16
78	19
79	3
80	2
82	0
83	5
84	10
85	59
86	26
87	2
88	10
89	35
90	46
91	34
92	10
93	2
94	0
100	0
101	4
102	51
103	20
104	35
105	3
106	13
107	27
108	2
111	2
112	4
113	81
114	10
115	2
116	6
117	18
118	20
119	34
120	17
121	10
122	2
128	1
129	2
130	15
131	11
132	18
133	3
134	3
135	1
136	9
137	111
138	9
139	1
140	0
141	2
144	3
145	18
146	4
147	2
148	11
149	11
150	3
151	0
157	1
158	2
159	376
160	34
161	5
162	1
163	4
164	9
165	452
166	46
167	4
174	2
175	4
176	17
177	6
178	1
185	1
186	0
188	2
189	1
190	0
191	24
192	8
193	10
194	1
203	16
204	2
205	4
206	2
207	1
208	5
209	137
210	20
211	2
215	23
216	3
217	0
220	14
221	13
222	2
223	0
231	0
232	1
233	0
234	0
237	0
248	17
249	2
250	0
259	171
260	22
261	4
262	4
263	1
264	1
265	40
266	9
267	1
276	6
277	2
278	5
279	1
293	0
294	40
295	6
296	6
297	0
322	34
323	6
324	1
339	7
340	15
341	2
395	4
396	0
