Mass Spectrum: 4-Oxazolecarboxylic acid, 4,5-dihydro-4-(1-hydroxy-1-methylethyl)-5-methyl-2-phenyl-, methyl ester, (4S-cis)-
Formula: C15H19NO4
CAS: 88318-77-8
Molecular weight: 277
m/z	intensity
25	3
26	14
27	41
28	19
29	52
30	2
31	12
33	1
36	1
37	6
38	10
39	33
40	4
41	16
42	21
43	267
44	17
45	3
49	3
50	36
51	121
52	14
53	5
54	33
55	16
56	2
57	121
58	90
59	20
60	0
61	1
62	6
63	15
64	3
65	2
66	0
67	1
68	10
69	4
70	1
71	14
72	0
73	2
74	9
75	12
76	26
77	427
78	35
79	2
82	1
83	1
84	1
85	1
86	2
87	2
88	3
89	23
90	9
91	7
92	1
97	1
102	1
103	10
104	78
105	999
106	88
107	5
114	73
115	8
116	19
117	14
118	5
119	2
120	3
121	1
128	26
129	2
130	4
131	2
132	61
133	7
134	1
141	0
142	1
143	0
144	3
145	2
146	2
147	1
148	0
149	1
157	1
158	2
159	8
160	469
161	57
162	5
163	0
172	6
173	2
174	44
175	7
176	3
185	2
186	6
187	80
188	21
189	2
190	0
201	24
202	6
203	1
204	6
205	0
217	2
218	8
219	90
220	15
221	1
232	0
233	9
234	1
262	2
278	0
