Mass Spectrum: Trichothec-9-en-8-one, 15-(acetyloxy)-12,13-epoxy-3,7-dihydroxy-, (3-.alpha.,7-.alpha.)-
Formula: C17H22O7
CAS: 88337-96-6
Molecular weight: 338
m/z	intensity
41	343
43	999
55	164
57	147
67	111
69	138
77	152
79	203
91	146
98	278
107	176
108	150
109	133
121	101
125	94
135	132
136	144
137	185
149	52
151	120
161	51
163	124
175	78
181	73
189	43
203	88
205	31
217	15
219	18
231	87
232	16
249	202
250	48
260	13
265	43
278	37
279	5
338	8
