Mass Spectrum: Methyl (11R,12R,13S)-(Z)-12,13-epoxy-11-methoxy-9-octadecenoate
Formula: C20H36O4
CAS: 88335-39-1
Molecular weight: 340
m/z	intensity
29	230
39	130
41	570
42	70
43	300
44	130
45	270
53	90
54	50
55	400
56	130
57	130
58	30
59	130
65	40
66	40
67	300
68	50
69	150
70	20
71	999
72	70
73	20
74	50
77	50
79	160
81	80
82	220
83	140
84	220
85	100
87	50
91	50
93	90
94	40
95	110
96	60
97	860
98	80
99	50
101	20
105	20
107	50
108	50
109	50
110	30
111	80
113	20
115	90
119	30
120	20
121	150
122	30
124	30
125	20
133	20
134	40
135	100
136	20
137	30
145	50
147	20
149	20
150	50
151	30
163	150
164	30
165	30
166	20
168	20
195	50
209	30
227	620
228	90
237	20
239	20
240	70
241	20
279	30
309	10
