Mass Spectrum: 2-Butenoic acid, 3-[(diethoxyphosphinyl)thio]-, ethyl ester
Formula: C10H19O5PS
CAS: 88351-03-5
Molecular weight: 282
m/z	intensity
45	274
59	681
71	195
72	207
73	278
85	263
100	999
101	444
113	367
145	196
179	490
181	85
226	13
253	109
254	22
282	197
