Mass Spectrum: 4-(2-Hydroxyethylamino)-3-nitrocoumarin
Formula: C11H10N2O5
CAS: 88353-20-2
Molecular weight: 250
m/z	intensity
37	251
38	364
39	671
40	520
41	242
42	147
43	432
44	408
45	401
50	610
51	495
52	299
53	102
54	68
55	107
56	67
57	66
58	44
59	21
60	70
62	714
63	530
64	265
65	288
66	59
67	51
68	61
69	56
70	111
71	43
72	22
74	283
75	321
76	650
77	798
78	162
79	71
80	53
81	31
82	35
83	17
85	93
86	101
87	214
88	445
89	605
90	314
91	478
92	150
93	47
94	35
95	34
97	20
98	12
99	33
100	41
102	999
103	516
104	498
105	185
106	107
107	188
109	7
111	10
112	7
116	406
117	182
118	158
119	348
120	336
121	76
123	29
125	8
126	4
127	19
128	93
130	283
132	690
133	240
134	42
135	13
136	2
137	3
138	1
140	5
141	6
142	23
143	26
144	50
145	143
147	559
148	126
149	14
155	3
157	61
158	79
159	257
160	83
161	156
162	377
163	72
164	11
165	2
167	8
169	10
170	14
171	50
172	29
174	101
175	130
176	49
177	9
184	5
185	17
186	67
187	66
188	16
189	42
190	13
191	17
192	9
193	2
197	4
198	13
199	4
200	7
202	28
203	52
204	32
205	2
207	40
214	5
216	9
217	5
218	4
219	7
220	9
221	3
225	2
248	3
250	94
251	12
