Mass Spectrum: 2-Iodo-6-methylheptane
Formula: C8H17I
CAS: 88373-60-8
Molecular weight: 240
m/z	intensity
26	7
27	125
28	26
29	145
30	5
37	1
38	8
39	160
40	33
41	504
42	157
43	586
44	22
45	33
46	2
47	1
48	2
49	3
50	5
51	14
52	7
53	45
54	17
55	232
56	57
57	852
58	41
59	5
63	3
65	8
66	3
67	21
68	7
69	84
70	30
71	956
72	47
73	76
74	4
77	6
79	8
80	1
82	6
83	1
84	6
85	3
86	8
88	1
91	2
95	2
97	36
98	3
99	2
110	1
111	13
112	12
113	999
114	83
115	4
127	38
128	23
129	3
142	4
144	3
155	17
157	7
158	2
159	4
169	16
183	8
197	2
225	2
239	4
240	18
241	2
