Mass Spectrum: D:A-Friedo-2,3-secooleanane-2,3-dioic acid, dimethyl ester, (4R)-
Formula: C32H54O4
CAS: 88373-58-4
Molecular weight: 502
m/z	intensity
27	14
29	92
30	2
31	12
33	2
34	4
39	20
40	49
41	371
42	24
43	264
44	15
45	17
46	2
47	2
51	2
52	2
53	77
54	23
55	608
56	57
57	237
58	13
59	141
60	7
61	4
64	1
65	25
66	12
67	470
68	159
69	898
70	74
71	65
72	7
73	35
74	27
75	38
76	3
77	67
78	13
79	226
80	50
81	793
82	280
83	344
84	34
85	162
86	12
87	22
88	165
89	20
90	6
91	147
92	30
93	421
94	132
95	999
96	401
97	227
98	31
99	59
100	8
101	23
102	8
103	12
104	8
105	176
106	53
107	472
108	198
109	873
110	134
111	311
112	39
113	18
114	14
115	41
116	11
117	29
118	13
119	213
120	91
121	656
122	145
123	559
124	115
125	244
126	27
127	20
128	19
129	31
130	9
131	47
132	19
133	206
134	73
135	372
136	149
137	415
138	81
139	34
140	12
141	87
142	28
143	30
144	49
145	66
146	22
147	218
148	69
149	337
150	142
151	185
152	48
153	97
154	19
155	42
156	12
157	18
158	16
159	59
160	19
161	137
162	52
163	282
164	89
165	49
166	15
167	126
168	27
169	69
170	14
171	19
172	11
173	40
174	12
175	82
176	32
177	179
178	45
179	115
180	70
181	139
182	24
183	24
184	6
185	15
186	9
187	70
188	17
189	116
190	40
191	352
192	62
193	100
194	152
195	214
196	35
197	38
198	17
199	210
200	29
201	44
202	15
203	134
204	130
205	575
206	227
207	166
208	122
209	213
210	43
211	28
212	6
213	11
214	5
215	25
216	10
217	66
218	472
219	219
220	92
221	62
222	21
223	59
224	10
225	13
226	3
227	9
228	4
229	32
230	18
231	53
232	27
233	39
234	40
235	83
236	24
237	100
238	19
239	33
240	6
241	8
242	2
243	15
244	12
245	101
246	27
247	33
248	15
249	43
250	17
251	43
252	10
253	6
255	9
256	3
257	16
258	8
259	46
260	24
261	61
262	27
263	58
264	26
265	54
266	15
267	12
268	3
269	19
270	3
271	19
272	22
273	479
274	157
275	43
276	17
277	32
278	9
279	7
280	5
281	7
282	3
283	6
285	12
286	5
287	23
288	14
289	20
290	24
291	65
292	20
293	6
294	3
295	3
296	8
297	8
298	2
299	8
300	4
301	81
302	22
303	24
304	8
305	19
306	6
307	12
308	3
309	5
313	2
314	2
315	5
316	2
317	38
318	22
319	29
320	7
321	7
322	8
323	33
324	8
325	2
327	7
328	3
329	4
331	10
332	10
333	15
334	5
335	73
336	18
337	5
338	1
339	3
340	2
341	17
342	9
343	2
345	12
346	28
347	11
348	3
349	30
350	33
351	12
352	2
353	1
355	3
358	3
359	9
360	3
363	3
364	6
365	13
366	4
367	2
368	1
369	3
377	5
378	18
379	6
382	1
383	9
384	3
385	1
391	2
397	2
399	24
400	8
401	4
411	2
412	10
413	9
414	78
415	240
416	70
417	12
423	2
424	1
425	1
426	1
427	11
428	6
429	6
433	1
437	4
438	1
439	9
440	4
441	3
442	33
443	22
444	4
445	2
446	21
447	6
448	1
452	2
455	34
456	14
457	4
458	2
459	4
460	2
470	24
471	37
472	12
473	4
474	1
487	133
488	48
489	9
490	1
501	2
502	140
503	51
504	10
505	0
