Mass Spectrum: 3,3'-Dihydroxy-5,5'-dimethoxy-2,2'-binaphthalene-1,1',4,4'-tetrone
Formula: C22H14O8
CAS: 88381-88-8
Molecular weight: 406
m/z	intensity
41	513
42	181
43	999
44	297
45	177
50	88
51	50
52	31
53	58
54	12
55	148
56	710
57	66
58	58
60	82
61	61
62	72
63	149
64	47
65	15
66	21
69	27
70	81
71	18
73	97
74	103
75	153
76	479
77	175
78	50
79	49
81	19
83	20
86	20
87	26
88	169
89	87
90	32
91	111
92	142
93	52
94	95
95	31
96	159
98	39
99	30
100	93
101	187
102	148
103	100
104	414
105	175
106	53
107	145
108	27
109	14
110	10
111	15
113	25
114	32
115	66
116	124
117	28
118	16
119	68
120	71
121	89
125	24
126	20
128	15
129	55
130	26
131	37
133	102
134	164
135	282
136	22
137	15
138	16
143	20
144	21
145	36
147	13
151	39
152	35
153	11
154	18
158	11
159	28
160	15
161	43
163	72
164	23
165	46
166	10
171	14
173	22
174	16
175	85
176	37
177	27
180	29
187	44
188	16
189	20
199	10
201	12
203	36
204	21
205	24
215	20
221	28
233	23
236	33
248	16
249	11
250	23
261	26
263	19
264	16
276	10
277	18
279	57
289	22
293	11
303	27
304	19
305	37
306	14
307	46
317	24
318	12
319	32
321	18
332	15
333	73
335	111
347	15
349	35
350	121
351	26
361	19
362	14
363	62
364	10
391	23
406	605
407	167
