Mass Spectrum: Tris(2,7-dimethyl-2,7-octadien-1-yl)amine
Formula: C30H51N
CAS: 88399-36-4
Molecular weight: 425
m/z	intensity
30	251
31	8
39	55
40	13
41	482
42	63
43	113
44	84
45	67
53	106
54	19
55	455
56	76
57	49
58	21
59	7
65	17
67	202
68	47
69	257
70	63
71	17
73	5
77	22
79	116
80	30
81	999
82	125
83	37
84	15
89	10
91	14
93	55
94	53
95	348
96	111
97	13
107	38
108	47
109	36
110	30
121	27
122	17
123	9
135	9
136	18
137	37
138	12
150	40
152	26
164	20
166	72
178	6
204	37
206	22
218	11
232	37
272	24
288	69
289	18
300	37
302	262
303	50
342	139
343	28
425	37
