Mass Spectrum: (1S,3aR,4R,8R,8aS)-1-Isopropyl-3a-methyl-7-methylenedecahydro-4,8-epoxyazulene
Formula: C15H24O
CAS: 88395-47-5
Molecular weight: 220
m/z	intensity
27	63
29	54
38	5
39	157
40	46
41	370
42	41
43	224
50	12
51	63
52	27
53	146
54	30
55	300
56	27
57	63
63	20
64	8
65	122
66	102
67	572
68	61
69	164
72	9
75	11
76	13
77	243
78	59
79	315
80	77
81	654
82	140
83	93
84	17
85	16
89	12
91	380
92	74
93	280
94	80
95	565
96	999
97	164
98	21
103	32
104	11
105	301
106	75
107	392
108	97
109	189
111	23
115	32
116	23
117	123
118	25
119	111
120	44
121	179
122	414
123	746
124	69
125	23
127	6
128	16
129	24
130	26
131	99
132	25
133	182
134	45
135	143
136	63
137	102
138	12
139	16
141	10
143	13
144	32
145	42
146	7
147	33
148	17
149	255
150	108
151	18
152	11
155	6
157	10
159	258
160	40
161	46
162	15
163	27
164	12
165	5
176	34
177	191
178	37
179	5
187	20
192	6
205	32
220	22
221	7
