Mass Spectrum: Cyclododecanecarboxylic acid
Formula: C13H24O2
CAS: 884-36-6
Molecular weight: 212
m/z	intensity
15	2
17	3
18	10
26	4
27	123
28	60
29	239
30	6
31	12
32	11
38	2
39	162
40	31
41	729
42	168
43	392
44	14
45	63
46	2
47	5
50	2
51	9
52	7
53	102
54	157
55	953
56	406
57	274
58	24
59	34
60	85
61	17
62	1
63	2
64	1
65	21
66	24
67	331
68	285
69	831
70	435
71	141
72	11
73	999
74	99
75	8
76	1
77	20
78	9
79	65
80	52
81	349
82	364
83	659
84	650
85	114
86	135
87	238
88	36
89	3
91	21
92	9
93	38
94	111
95	282
96	592
97	779
98	869
99	554
100	172
101	175
102	47
103	4
104	1
105	11
106	9
107	31
108	95
109	193
110	540
111	476
112	251
113	256
114	302
115	134
116	130
117	10
118	8
119	59
120	24
121	35
122	35
123	228
124	215
125	192
126	67
127	291
128	79
129	160
130	72
131	8
132	4
133	68
134	115
135	32
136	19
137	199
138	156
139	90
140	129
141	70
142	27
143	58
144	71
145	8
146	1
147	62
148	22
149	4
150	356
151	234
152	430
153	112
154	17
155	67
156	20
157	18
158	5
160	2
161	10
162	2
163	6
164	3
165	139
166	58
167	11
168	6
169	91
170	18
171	7
172	1
175	3
176	344
177	50
178	2
179	13
180	2
182	1
183	24
184	15
185	2
190	1
191	1
193	3
194	891
195	144
196	11
197	3
210	5
211	10
212	511
213	102
214	11
215	1
