Mass Spectrum: Dithieno[3,4-a][3',4'-d][1,2,5,6]-tetraselenocine
Formula: C8H4S2Se4
CAS: 88419-19-6
Molecular weight: 484
m/z	intensity
38	90
45	150
69	90
81	130
82	999
83	60
84	50
93	60
115	70
117	130
128	90
130	160
132	40
188	30
190	50
192	60
236	80
237	50
238	190
239	110
240	330
241	50
242	400
243	30
244	230
245	20
246	40
316	10
318	20
319	15
320	40
321	20
322	60
324	60
326	20
398	1
400	2
402	3
404	2
406	1
474	20
475	20
476	50
477	40
478	90
479	60
480	130
481	50
482	130
483	30
484	100
485	20
486	50
