Mass Spectrum: 1,1'-Bicyclohexyl, 4-(methoxymethyl)-4'-pentyl-
Formula: C19H36O
CAS: 88416-89-1
Molecular weight: 280
m/z	intensity
15	41
27	101
29	281
39	91
41	557
43	245
45	730
53	96
54	133
55	603
56	38
57	91
65	32
67	538
68	91
69	250
70	21
71	77
77	52
79	223
80	89
81	437
82	157
83	332
84	26
91	49
93	111
94	286
95	999
96	257
97	315
98	25
107	51
108	30
109	118
110	50
111	69
121	66
122	75
123	97
124	22
127	29
135	91
136	57
137	121
138	29
149	54
150	26
151	82
152	33
163	34
177	86
178	33
219	186
220	60
248	155
249	30
