Mass Spectrum: Isoleucine, N-(heptafluorobutyryl) propyl ester
Formula: C13H18F7NO3
CAS: 88436-04-8
Molecular weight: 369
m/z	intensity
28	42
29	138
30	5
31	9
37	3
38	4
39	36
40	5
41	376
42	34
43	357
44	22
45	9
47	2
50	2
51	1
52	3
53	12
54	13
55	25
56	25
57	145
58	7
59	8
60	1
61	24
65	2
67	21
68	22
69	999
70	54
71	7
73	4
74	14
77	2
78	3
79	1
82	3
83	2
84	14
85	2
86	3
87	3
93	2
95	1
96	6
97	7
98	2
99	8
100	8
101	3
105	0
107	0
109	2
110	0
112	6
113	5
114	32
115	11
119	6
128	3
130	10
131	2
133	1
135	2
146	2
150	2
156	21
157	2
159	2
169	49
172	5
178	6
194	2
196	3
197	4
214	79
215	5
225	23
226	76
227	4
236	2
238	6
239	4
240	59
241	4
252	14
253	298
254	40
255	4
262	24
263	2
266	16
267	2
270	7
271	97
272	8
280	9
281	8
282	567
283	73
284	4
308	10
309	3
310	6
312	2
313	101
314	11
