Mass Spectrum: Tetrahydropyran, 2-[2-(2-iodoethoxy)ethoxy]-
Formula: C9H17IO3
CAS: 88454-93-7
Molecular weight: 300
m/z	intensity
26	13
27	301
28	100
29	196
30	6
31	67
37	1
38	2
39	60
40	16
41	389
42	41
43	214
44	43
45	272
46	6
47	4
49	11
50	2
51	6
52	1
53	17
54	12
55	175
56	198
57	207
58	9
59	2
61	1
62	11
63	253
64	9
65	85
66	7
67	113
68	7
69	7
70	4
71	6
72	7
73	245
74	6
75	2
79	2
81	2
82	1
83	15
84	145
85	999
86	66
87	3
88	9
89	7
93	39
94	1
95	11
98	13
99	19
100	2
101	89
102	5
103	3
106	49
107	62
108	19
109	17
110	1
111	1
114	1
115	47
116	2
125	3
127	3
128	9
129	7
140	2
142	2
143	4
144	1
145	6
150	3
151	1
152	1
153	5
154	2
155	153
156	2
163	2
170	2
172	1
174	1
179	11
180	1
181	3
183	5
185	2
190	1
198	11
199	4
207	3
209	2
211	3
271	3
299	4
300	1
