Mass Spectrum: Ethanone, 1-(2,5-dimethyl-4-phenylfuran-3-yl)-
Formula: C14H14O2
CAS: 88484-88-2
Molecular weight: 214
m/z	intensity
25	0
26	4
27	17
28	15
29	7
30	0
31	2
32	2
35	15
36	1
37	1
38	3
39	45
40	3
41	11
42	5
43	999
44	22
45	7
47	4
48	0
49	4
50	24
51	77
52	14
53	7
54	0
55	9
56	1
57	3
58	2
59	1
60	1
61	2
62	10
63	36
64	9
65	28
66	4
67	4
68	0
69	5
70	3
71	5
72	2
73	3
74	20
75	33
76	27
77	101
78	28
79	7
80	0
81	1
82	3
83	4
84	14
85	6
86	12
87	10
88	5
89	15
90	3
91	20
92	4
93	2
94	2
95	2
96	2
97	7
98	26
99	22
100	7
101	19
102	43
103	28
104	3
105	27
106	7
107	17
108	0
109	0
110	0
111	1
112	1
113	4
114	3
115	45
116	7
117	3
118	1
119	4
120	3
121	2
122	1
123	3
124	2
125	4
126	27
127	94
128	169
129	129
130	15
131	8
132	2
133	1
134	0
135	0
136	0
137	2
138	2
139	9
140	2
141	24
142	9
143	89
144	14
145	63
146	10
147	6
148	3
149	2
150	1
151	4
152	14
153	27
154	5
155	12
156	5
157	44
158	6
159	3
160	0
161	3
162	1
163	1
164	2
165	3
166	1
167	3
168	2
169	7
170	5
171	185
172	27
173	9
174	1
175	0
176	0
177	1
178	2
179	1
180	0
181	18
182	3
183	3
184	2
185	9
186	5
187	14
188	21
189	5
190	1
191	0
195	10
196	4
197	6
198	4
199	788
200	111
201	10
202	1
203	2
204	2
205	1
211	1
212	4
213	51
214	579
215	99
216	10
217	1
