Mass Spectrum: 2-Methylbutane-1,4-diol, 3-(1-ethoxyethoxy)-
Formula: C9H20O4
CAS: 88481-54-3
Molecular weight: 192
m/z	intensity
25	2
26	17
27	136
28	14
29	176
30	10
31	222
33	2
37	2
38	4
39	75
40	12
41	192
42	46
43	229
44	51
45	941
46	25
47	33
50	2
51	5
52	2
53	21
54	17
55	83
56	17
57	153
58	32
59	41
60	4
61	31
62	1
63	1
65	3
66	1
67	32
68	4
69	13
70	11
71	87
72	48
73	999
74	46
75	16
76	1
77	1
79	5
81	3
82	2
83	6
84	6
85	162
86	11
87	19
88	2
89	22
90	1
97	2
98	1
99	3
100	1
101	10
102	4
103	46
104	3
105	1
112	1
114	5
115	43
116	6
117	3
118	1
129	2
131	11
133	2
145	1
147	10
161	2
