Mass Spectrum: 2-Benzyloxy-3-methyl-1,4-butanediol
Formula: C12H18O3
CAS: 88481-61-2
Molecular weight: 210
m/z	intensity
26	2
27	19
29	19
30	1
31	69
37	0
38	2
39	30
40	3
41	33
42	2
43	20
44	2
45	2
46	0
47	0
50	5
51	17
52	5
53	3
54	0
55	5
56	1
57	17
58	6
59	122
60	4
61	18
62	3
63	13
64	5
65	73
66	4
67	0
68	8
69	1
70	0
71	3
72	0
73	2
74	1
75	1
76	1
77	16
78	4
79	12
80	1
81	0
83	0
84	0
85	2
86	7
87	0
88	0
89	18
90	12
91	999
92	208
93	14
94	0
96	0
97	0
98	0
100	0
101	2
102	0
103	0
104	1
105	23
106	8
107	40
108	8
109	0
115	0
116	5
117	0
118	0
119	1
120	0
121	0
122	0
131	0
132	0
133	0
134	91
135	12
136	0
137	0
138	0
141	0
142	0
145	0
148	0
151	1
165	2
166	0
179	1
210	4
211	0
