Mass Spectrum: 1-Phenyl-3,4-dimethyl-4-nitroso-2-pyrazolin-5-one
Formula: C11H11N3O2
CAS: 885-11-0
Molecular weight: 217
m/z	intensity
37	50
38	80
39	220
40	50
41	60
42	50
50	150
51	390
52	120
53	50
54	60
63	100
64	170
65	80
67	70
77	999
78	80
91	290
103	280
105	120
119	110
130	100
132	30
158	100
186	40
217	180
218	20
