Mass Spectrum: Ethyl 3,4-dihydro-2-(1-hydroxypropyl)-6-methyl-2H-pyran-5-carboxylate
Formula: C12H20O4
CAS: 88525-44-4
Molecular weight: 228
m/z	intensity
27	250
29	554
31	147
39	94
40	29
41	222
43	999
44	34
45	29
51	13
52	12
53	86
54	29
55	231
57	283
58	20
59	42
65	26
66	16
67	93
68	98
69	164
70	51
71	37
72	18
73	28
77	18
79	35
80	13
81	79
82	95
83	53
84	43
85	98
86	63
87	10
91	11
93	40
94	41
95	130
96	62
97	324
98	445
99	86
101	25
102	11
103	62
107	21
108	15
109	29
110	166
111	207
112	78
113	43
114	36
115	76
116	12
121	53
122	23
123	221
124	88
125	147
126	74
127	64
128	13
129	19
131	468
132	32
135	18
136	23
137	13
139	90
140	98
141	121
142	41
143	138
144	44
149	42
153	34
154	28
155	21
156	69
157	37
164	31
167	13
168	21
169	79
170	17
181	30
183	212
184	26
185	11
186	135
187	19
199	29
228	112
229	18
