Mass Spectrum: Hexanoic acid, 4-hexen-1-yl ester
Formula: C12H22O2
CAS: 88552-98-1
Molecular weight: 198
m/z	intensity
25	0
26	7
27	101
28	38
29	140
30	3
31	8
37	1
38	2
39	100
40	18
41	222
42	65
43	278
44	12
45	8
50	2
51	5
52	4
53	43
54	97
55	249
56	28
57	12
58	2
59	2
60	10
61	1
63	1
65	11
66	13
67	999
68	66
69	28
70	10
71	130
72	9
73	12
74	1
75	3
77	4
78	0
79	18
80	7
81	74
82	823
83	90
84	5
85	1
86	1
87	9
88	1
89	6
91	1
92	0
95	0
96	1
97	7
98	3
99	136
100	30
101	5
113	1
114	1
115	3
116	1
117	17
118	1
127	1
142	0
143	2
