Mass Spectrum: Methylcarbamothioic acid, O-propyl ester
Formula: C5H11NOS
CAS: 88568-70-1
Molecular weight: 133
m/z	intensity
27	32
28	190
29	140
30	280
31	60
32	72
38	110
39	24
40	240
41	190
42	250
43	32
44	48
46	72
58	999
59	68
60	88
61	40
72	40
73	48
74	340
75	68
76	68
91	210
92	420
93	36
94	36
133	550
134	62
135	40
