Mass Spectrum: Ethyl 7-ethyl-5-methyl-6,8-dioxabicyclo[3.2.1]octane-4-carboxylate
Formula: C12H20O4
CAS: 88586-91-8
Molecular weight: 228
m/z	intensity
27	193
29	297
30	12
31	18
39	68
40	17
41	175
43	999
44	32
45	25
53	43
55	172
56	19
57	133
58	23
61	11
67	92
68	230
69	78
70	16
71	46
72	24
73	56
77	10
79	27
80	14
81	40
82	17
83	49
84	92
85	99
86	169
87	28
88	21
93	31
94	85
95	186
96	69
97	87
98	61
99	60
101	51
102	15
111	63
112	196
113	74
114	44
115	43
122	20
123	64
124	22
125	54
126	13
127	10
128	26
129	17
139	45
140	292
141	71
142	67
143	17
153	15
157	37
168	44
170	19
171	19
183	167
184	21
186	541
187	59
199	23
210	21
