Mass Spectrum: Hexadecenenitrile
Formula: C16H29N
CAS: 88592-11-4
Molecular weight: 235
m/z	intensity
28	171
29	399
30	45
32	53
39	167
40	47
41	742
42	176
43	999
44	67
53	160
54	212
55	461
56	291
57	672
58	66
65	42
66	87
67	258
68	122
69	339
70	247
71	226
79	70
80	232
81	234
82	204
83	241
84	138
85	97
91	42
93	55
94	174
95	163
96	197
97	288
98	101
108	152
109	95
110	185
111	95
112	53
122	260
123	103
124	118
125	51
136	236
137	94
138	81
150	177
151	91
152	65
164	177
165	71
166	50
178	180
179	64
192	220
193	64
194	44
206	154
207	47
220	49
234	35
235	30
