Mass Spectrum: Urea, N-cyclohexyl-N'-phenyl-
Formula: C13H18N2O
CAS: 886-59-9
Molecular weight: 218
m/z	intensity
27	57
28	60
29	42
30	29
31	2
36	0
37	5
38	14
39	83
40	15
41	124
42	26
43	67
44	10
45	1
46	0
47	0
49	0
50	12
51	34
52	13
53	18
54	29
55	82
56	90
57	6
58	0
59	0
60	0
61	4
62	3
63	11
64	18
65	61
66	54
67	24
68	5
69	7
70	7
71	1
72	0
73	0
74	2
75	2
76	4
77	64
78	8
79	5
80	2
81	8
82	10
83	14
84	1
87	0
88	0
89	0
90	1
91	20
92	43
93	999
94	62
95	2
96	2
97	6
98	12
99	5
100	0
103	0
104	2
105	4
106	3
118	5
119	18
120	12
132	6
133	2
134	0
135	13
136	6
137	1
217	0
218	37
219	5
220	0
