Mass Spectrum: 2-Tetrazoline-5-thione, 1-cyclohexyl-4-(morpholinomethyl)-
Formula: C12H21N5OS
CAS: 88616-06-2
Molecular weight: 283
m/z	intensity
33	7
34	1
35	0
36	0
37	0
39	30
41	95
42	62
43	16
44	17
45	6
46	3
47	1
48	1
50	2
51	4
52	3
53	11
54	24
55	66
56	88
57	17
58	7
59	4
60	7
61	0
62	0
63	1
64	4
65	3
67	18
68	4
69	6
70	19
71	9
72	21
73	2
74	1
75	1
77	13
78	3
79	5
81	11
82	5
83	10
84	1
85	2
86	10
87	10
88	1
89	1
90	1
91	4
92	1
93	2
94	0
95	0
96	1
98	24
100	999
101	38
103	50
104	12
105	18
106	4
107	0
108	0
109	0
110	0
111	0
112	0
113	0
114	0
115	0
116	0
117	2
118	3
119	3
120	3
121	0
122	0
123	1
124	0
125	0
127	0
128	0
129	0
130	2
132	30
133	3
134	0
135	0
136	0
137	0
138	0
140	12
141	1
142	0
143	0
144	2
145	0
146	0
147	0
148	0
149	1
150	1
151	0
152	0
153	0
154	0
155	0
156	0
157	2
158	0
159	0
160	0
161	1
162	0
163	0
164	0
165	0
166	0
167	0
168	0
169	0
170	0
171	0
172	0
174	0
175	0
176	1
177	1
178	1
179	0
180	0
181	0
182	0
184	13
185	1
186	0
189	1
190	0
191	0
192	0
193	0
194	0
195	0
200	0
205	0
206	0
207	0
209	0
213	0
221	0
222	0
223	0
224	0
225	0
233	0
234	0
235	0
236	0
238	0
240	0
241	0
243	0
250	0
251	0
252	0
253	0
254	0
263	0
264	0
265	0
266	0
267	0
268	0
279	0
280	0
281	2
283	18
284	2
285	0
