Mass Spectrum: 1-Oxa-2-sila-5-boracyclopent-3-ene, 4,5-diethyl-2,2,3-trimethyl-
Formula: C9H19BOSi
CAS: 88636-30-0
Molecular weight: 182
m/z	intensity
27	23
29	35
30	3
31	31
37	3
39	13
40	5
41	21
42	19
43	292
44	27
45	55
46	3
47	3
49	3
50	12
51	11
52	4
53	30
54	11
55	69
56	22
57	49
58	110
59	186
60	18
61	9
62	20
63	12
65	8
66	13
67	69
68	18
69	95
70	27
71	62
72	42
73	64
74	8
75	9
76	7
77	4
79	8
80	5
81	47
82	26
83	192
84	42
85	83
86	116
87	33
88	12
89	3
90	3
93	7
94	3
95	35
96	24
97	587
98	27
99	54
100	11
101	4
102	3
103	3
105	3
108	14
109	31
110	22
111	999
112	126
113	56
114	69
115	35
116	13
117	3
122	2
123	8
124	14
125	101
126	621
127	73
128	25
129	8
133	4
134	3
137	5
138	45
139	172
140	395
141	54
142	17
151	2
152	46
153	185
154	26
155	8
165	2
166	52
167	197
168	25
169	8
180	2
181	150
182	645
183	94
184	23
