Mass Spectrum: 1-(Alpha-acetamidotoluene-p-sulfonyl)-3-hexylurea
Formula: C16H25N3O4S
CAS: 88637-18-7
Molecular weight: 355
m/z	intensity
12	1
14	6
15	45
16	6
17	26
18	11
25	1
26	18
27	141
28	221
29	162
30	999
31	68
32	7
33	3
34	9
36	1
37	5
38	19
39	137
40	57
41	350
42	173
43	965
44	315
45	139
46	15
47	1
48	15
49	3
50	63
51	88
52	41
53	31
54	47
55	221
56	261
57	37
58	36
59	30
60	5
61	5
62	14
63	80
64	52
65	27
66	12
67	28
68	16
69	69
70	26
71	15
72	45
73	6
74	18
75	23
76	72
77	222
78	121
79	105
80	14
81	5
82	28
83	14
84	69
85	77
86	23
87	5
88	4
89	306
90	149
91	44
92	13
93	18
94	13
95	11
96	7
97	4
98	79
99	214
100	36
101	114
102	34
103	39
104	173
105	764
106	845
107	101
108	9
109	28
110	7
111	8
112	51
113	4
115	2
116	4
117	3
118	7
119	14
120	15
121	44
122	42
123	21
124	9
125	10
126	8
127	6
128	5
129	7
130	10
131	9
132	25
133	7
134	5
135	9
136	11
137	11
138	24
139	5
140	4
141	29
142	3
143	2
144	1
145	4
146	7
147	481
148	138
149	19
150	3
151	1
152	49
153	25
154	22
155	6
156	1
157	1
158	6
159	1
160	1
161	1
163	2
164	22
165	5
166	2
167	4
168	16
169	11
170	430
171	41
172	21
173	2
177	3
179	2
180	2
181	30
182	4
183	4
184	20
185	70
186	10
187	4
190	1
192	1
194	1
195	7
196	62
197	11
198	4
199	4
208	1
209	6
210	5
211	355
212	500
213	70
214	27
215	3
223	5
225	1
226	1
227	3
228	182
229	27
230	10
231	1
235	1
236	1
237	2
238	1
239	4
251	1
252	1
253	19
254	717
255	109
256	45
257	6
258	1
