Mass Spectrum: 1-Ethyl-4-(4-phenyl-2-thiazolyl)piperidine
Formula: C16H20N2S
CAS: 88654-25-5
Molecular weight: 272
m/z	intensity
33	8
34	72
40	48
41	213
42	832
43	188
44	86
45	128
46	10
47	9
50	37
51	78
52	37
53	75
54	94
55	178
56	326
57	339
58	79
59	6
60	6
61	6
62	51
63	51
64	19
65	32
67	63
68	59
69	83
70	131
71	149
72	115
73	11
74	13
75	20
76	31
77	83
78	26
79	23
80	63
81	43
82	172
84	237
85	999
86	66
87	8
89	181
90	142
91	175
92	25
93	25
94	19
95	26
96	154
97	22
98	53
99	17
100	9
102	69
103	20
104	20
105	33
106	17
108	86
109	31
110	242
111	996
112	94
113	8
115	16
116	9
117	8
118	4
119	8
120	17
121	33
122	14
123	141
124	15
125	2
127	9
128	103
129	87
130	4
132	11
133	66
134	428
135	155
136	42
137	34
138	8
140	4
142	241
143	19
144	3
145	2
147	10
148	78
149	15
154	4
155	3
156	26
157	45
158	7
159	9
160	9
