Mass Spectrum: N,N'-Dimethyl-decane-1,10-diamine
Formula: C12H28N2
CAS: 88682-11-5
Molecular weight: 200
m/z	intensity
25	1
26	18
27	36
28	19
29	57
30	17
31	18
37	1
38	18
40	3
41	51
42	45
43	33
44	999
45	35
51	2
52	1
53	6
54	4
55	30
56	28
57	26
58	31
59	11
63	1
65	2
67	5
68	4
69	10
70	43
71	5
72	63
73	7
77	3
78	1
79	2
81	3
82	1
83	2
84	5
86	17
87	2
91	5
95	1
96	1
98	3
99	2
100	18
101	2
102	1
105	1
107	1
112	1
114	19
115	3
126	1
128	17
129	8
142	18
143	5
149	2
156	23
157	55
158	6
168	2
169	1
170	32
171	5
172	2
184	0
185	12
186	1
199	26
200	38
201	5
202	1
