Mass Spectrum: Thiazolo[3,2-a][1,3,5]-triazin-6(7H)-one, 3,4(2H)-dihydro-7-hydroxymethyl-7-methyl-3-phenyl-
Formula: C13H15N3O2S
CAS: 88696-71-3
Molecular weight: 277
m/z	intensity
33	1
34	0
35	1
37	2
38	5
39	19
40	8
41	11
42	6
43	4
44	4
45	9
47	3
48	0
50	14
51	37
52	8
53	5
54	13
55	14
56	12
57	10
59	82
60	8
61	7
62	2
63	5
64	3
65	6
66	1
68	4
69	4
70	2
72	19
73	5
74	5
75	5
77	144
78	20
79	4
82	13
83	2
84	1
85	6
86	9
88	12
89	5
91	23
93	3
94	2
95	0
96	0
97	0
98	0
99	1
100	1
101	2
104	392
105	999
106	113
107	6
109	3
110	0
111	0
113	5
114	1
115	2
116	2
117	6
118	6
119	4
120	1
121	1
123	1
124	1
125	0
126	1
127	2
128	3
129	1
130	1
131	1
132	0
133	1
134	0
135	1
136	3
137	0
138	0
139	0
141	17
142	7
143	20
144	4
145	2
146	1
147	0
149	1
150	1
151	0
152	0
153	0
154	0
155	1
156	1
157	1
158	1
159	0
160	3
161	1
162	0
163	1
164	0
166	0
169	0
171	3
173	30
174	26
175	3
176	2
177	0
178	0
179	0
180	0
185	1
186	2
187	1
188	0
189	0
190	0
191	0
192	0
193	0
194	0
202	0
217	0
218	0
219	0
220	0
221	0
233	0
244	0
246	3
247	3
248	0
250	9
251	1
252	0
273	0
274	1
277	137
278	18
279	7
280	0
283	0
