Mass Spectrum: Cyclopentanone, 3,3-dimethyl-2-(3-methyl-1,3-butadienyl)-, (E)-
Formula: C12H18O
CAS: 88725-86-4
Molecular weight: 178
m/z	intensity
26	19
27	225
28	78
29	191
30	12
31	10
37	6
38	22
39	387
40	74
41	582
42	64
43	205
44	9
45	14
50	31
51	126
52	74
53	275
54	41
55	281
56	94
57	29
58	6
59	15
60	9
62	11
63	59
64	20
65	200
66	60
67	209
68	47
69	228
70	117
71	30
73	11
74	12
75	21
76	11
77	425
78	117
79	702
80	958
81	999
82	99
83	47
84	7
85	14
89	17
90	12
91	640
92	114
93	333
94	93
95	174
96	48
97	94
98	22
99	25
103	51
104	35
105	278
106	62
107	948
108	199
109	880
110	105
111	32
112	5
115	30
116	11
117	39
118	12
119	85
120	29
121	243
122	445
123	256
124	48
125	19
126	7
128	15
129	18
130	20
131	14
133	23
134	14
135	110
136	35
137	21
138	34
139	11
141	7
143	7
145	210
146	27
147	27
148	36
149	31
150	22
151	16
152	14
161	15
162	10
163	805
164	114
165	35
166	11
177	36
178	773
179	116
180	20
