Mass Spectrum: 8,10-Undecadiene-3,7-dione, 6,6,10-trimethyl-, (E)-
Formula: C14H22O2
CAS: 88725-77-3
Molecular weight: 222
m/z	intensity
26	4
27	44
28	9
29	211
30	14
31	5
38	2
39	53
40	13
41	152
42	18
43	85
44	5
45	3
50	2
51	9
52	6
53	22
54	4
55	71
56	17
57	999
58	35
59	6
63	3
65	26
66	10
67	155
68	16
69	45
70	14
71	19
72	3
77	10
78	2
79	12
80	3
81	22
82	5
83	20
84	9
85	14
91	12
92	2
93	8
94	4
95	453
96	108
97	22
98	22
99	11
105	8
106	2
107	11
108	4
109	133
110	14
111	9
112	3
113	2
119	4
121	7
122	4
123	58
124	6
125	6
126	9
127	372
128	35
129	3
133	4
135	8
136	3
137	8
138	16
139	5
141	4
147	4
149	4
151	6
153	2
154	5
155	6
161	2
163	1
165	15
166	8
167	3
168	1
179	1
189	1
193	7
194	6
195	1
204	1
222	21
223	4
