Mass Spectrum: 1,5-Cyclooctanedione, 2,2,6-trimethyl-7-(1-methylethenyl)-
Formula: C14H22O2
CAS: 88725-79-5
Molecular weight: 222
m/z	intensity
26	6
27	123
28	31
29	131
30	3
31	6
38	6
39	165
40	46
41	445
42	108
43	152
44	15
45	5
47	3
48	4
50	5
51	25
52	14
53	141
54	47
55	279
56	138
57	158
58	13
59	7
63	5
64	1
65	34
66	20
67	367
68	79
69	130
70	148
71	45
72	15
73	5
74	13
75	8
77	40
78	9
79	57
80	24
81	186
82	999
83	126
84	31
85	16
86	6
88	2
91	26
92	11
93	40
94	35
95	691
96	276
97	100
98	14
99	10
105	42
106	13
107	48
108	21
109	237
110	409
111	105
112	26
113	5
115	5
119	8
120	78
121	73
122	18
123	201
124	982
125	117
126	388
127	49
128	5
129	1
131	1
133	9
135	4
136	1
137	23
138	55
139	14
140	5
141	14
142	1
147	4
148	12
149	7
150	2
151	40
152	5
153	5
154	25
155	3
161	2
165	5
166	90
167	78
168	10
179	15
180	7
181	7
183	2
194	18
195	4
207	3
222	285
223	44
224	6
