Mass Spectrum: 2-Methyl-1-propanone, 1-(4-propoxyphenyl)-3-(1-piperidinyl)-
Formula: C18H27NO2
CAS: 88781-89-9
Molecular weight: 289
m/z	intensity
26	2
27	32
28	17
29	15
30	14
31	0
39	40
40	5
41	100
42	54
43	48
44	29
45	1
50	8
51	5
52	2
53	6
54	7
55	57
56	32
57	22
58	2
59	0
60	0
61	0
62	2
63	12
64	13
65	58
66	6
67	5
68	11
69	30
70	34
71	3
72	0
73	0
74	2
75	4
76	17
77	14
78	5
79	5
80	2
81	2
82	6
83	13
84	53
85	24
86	2
87	0
88	0
89	1
90	1
91	11
92	20
93	54
94	7
95	2
96	31
97	63
98	999
99	77
100	2
101	0
102	1
103	7
104	11
105	9
106	2
107	5
108	1
109	0
110	8
111	1
112	0
113	0
114	0
115	4
116	1
117	2
118	1
119	4
120	7
121	293
122	25
123	2
124	6
125	4
126	20
127	2
128	0
129	0
130	0
131	2
132	1
133	9
134	10
135	2
136	0
141	0
142	0
143	0
144	1
145	6
146	1
147	5
148	1
149	4
150	1
160	1
161	7
162	12
163	147
164	16
165	1
172	0
173	0
174	0
175	1
176	2
177	0
189	0
190	0
191	0
192	2
193	0
202	0
203	1
204	75
205	12
206	1
245	0
246	1
247	0
274	6
275	1
287	0
288	2
289	4
290	1
