Mass Spectrum: Cyclopropanecarboxylic acid, 2-methylene-, methyl ester
Formula: C6H8O2
CAS: 88787-23-9
Molecular weight: 112
m/z	intensity
26	91
27	524
28	22
29	157
30	31
31	64
33	10
36	4
37	42
38	73
39	258
41	180
42	49
43	140
44	14
45	157
46	4
48	4
49	41
50	225
51	317
52	235
53	942
54	170
55	154
56	59
57	29
58	46
59	283
60	18
61	13
62	11
63	7
64	4
65	15
66	12
67	136
68	40
69	321
70	26
71	45
72	23
73	11
74	2
75	13
76	2
77	58
78	7
79	59
80	34
81	999
82	949
83	147
84	69
85	24
86	3
87	0
89	2
90	9
91	49
92	17
93	12
94	3
95	16
96	4
97	412
98	39
99	3
103	3
104	2
105	11
106	2
107	5
108	3
109	10
111	366
112	397
113	34
