Mass Spectrum: 1,4-Dichloro-1,4-disilabutane
Formula: C2H8Cl2Si2
CAS: 88789-64-4
Molecular weight: 158
m/z	intensity
30	59
31	175
32	13
35	34
36	42
37	11
38	12
41	6
42	20
43	158
44	17
45	13
53	66
54	18
55	120
56	37
57	139
58	695
59	143
60	25
63	663
64	182
65	999
66	90
67	279
68	21
69	14
79	19
80	7
81	18
89	9
90	10
91	100
92	211
93	375
94	118
95	165
96	22
97	16
98	20
99	44
100	17
101	31
121	5
122	20
123	738
124	100
125	292
126	32
127	16
128	36
129	25
130	39
131	22
132	20
133	8
156	29
157	145
158	49
159	110
160	35
161	25
162	7
163	2
