Mass Spectrum: Propenone, 3-(1-benzylindol-3-yl)-1-methyl-2-nitro-
Formula: C19H16N2O3
CAS: 88818-55-7
Molecular weight: 320
m/z	intensity
33	32
34	23
35	1
36	4
37	4
38	14
39	67
40	30
41	40
42	75
43	129
44	43
45	66
46	10
47	1
48	1
50	17
51	31
52	10
53	6
54	6
55	13
56	17
57	15
58	8
59	7
60	3
62	17
63	37
64	16
65	124
66	8
67	3
68	3
69	8
70	6
71	61
72	4
73	3
74	8
75	15
76	11
77	15
78	4
79	3
80	1
81	4
82	2
83	3
84	4
85	4
86	15
87	9
88	18
89	32
91	999
92	74
93	4
94	1
95	2
96	2
97	3
98	3
99	4
100	3
101	11
102	14
103	7
104	5
105	5
106	2
107	2
108	2
109	3
110	1
111	3
112	4
113	21
114	117
115	16
116	8
117	4
118	1
119	2
120	2
121	1
122	1
123	2
124	1
125	1
126	4
127	6
128	9
129	6
130	7
131	2
132	3
133	2
134	0
135	2
136	1
137	1
139	5
140	15
141	4
142	2
143	2
144	2
145	2
146	4
147	0
148	1
149	6
150	2
151	2
152	2
153	2
154	4
155	6
156	3
157	8
158	2
159	1
160	1
161	0
163	1
164	1
165	1
166	1
167	1
168	1
169	1
171	6
172	1
173	1
174	0
175	1
176	2
177	1
178	2
179	1
180	1
181	1
182	1
184	1
185	0
186	0
187	2
188	0
189	1
190	1
191	1
193	1
194	0
195	0
196	0
197	0
198	0
199	1
200	1
201	1
202	5
203	4
204	7
205	3
206	3
207	2
208	1
210	0
212	1
214	0
215	0
216	2
217	2
218	2
219	1
220	3
221	1
222	2
223	0
224	0
226	0
227	1
228	4
230	14
231	38
232	12
233	7
234	8
235	35
236	5
237	0
239	0
242	0
244	0
246	6
247	2
248	4
249	2
250	0
251	0
252	0
258	1
259	1
260	1
261	2
262	1
263	0
264	0
269	0
271	0
272	1
273	4
274	8
275	2
276	6
278	120
279	22
280	3
281	0
290	1
297	0
301	0
304	0
318	1
319	1
320	22
321	5
322	1
325	0
