Mass Spectrum: Cycloundecene, 1-methyl-
Formula: C12H22
CAS: 88828-82-4
Molecular weight: 166
m/z	intensity
26	7
27	153
28	35
29	189
30	6
35	4
38	7
39	240
40	65
41	706
42	117
43	140
44	6
50	9
51	37
52	27
53	227
54	285
55	801
56	530
57	305
58	15
60	6
63	10
65	53
66	81
67	999
68	843
69	615
70	149
71	25
77	70
78	19
79	136
80	73
81	969
82	723
83	318
84	44
85	11
91	52
92	10
93	44
94	48
95	860
96	725
97	182
98	21
99	4
105	7
107	13
108	23
109	515
110	418
111	61
112	9
115	4
121	6
122	11
123	189
124	127
125	16
137	52
138	39
139	6
149	7
151	139
152	16
166	712
167	85
168	6
