Mass Spectrum: Androst-5-ene, 3,17-dimethoxy-, (3.beta.,17.beta.)-
Formula: C21H34O2
CAS: 88870-26-2
Molecular weight: 318
m/z	intensity
41	999
42	97
43	217
44	145
45	319
50	46
51	109
52	35
53	247
54	39
55	590
56	61
57	109
58	105
59	177
63	57
64	32
65	191
66	72
67	499
68	79
69	151
70	32
71	530
72	105
73	137
77	439
78	137
79	660
80	109
81	525
82	72
83	105
84	32
85	145
91	890
92	181
93	535
94	149
95	329
96	43
97	189
103	97
104	72
105	740
106	189
107	600
108	145
109	185
110	43
111	109
115	151
116	72
117	319
118	109
119	590
120	265
121	289
122	72
123	109
124	72
125	72
127	54
128	119
129	189
130	101
131	394
132	145
133	399
134	111
135	151
136	43
137	75
138	64
139	75
140	6
141	111
142	79
143	449
144	109
145	525
146	149
147	173
148	75
149	50
155	79
156	64
157	253
158	209
159	334
160	159
161	349
162	72
163	46
164	35
165	119
169	105
170	35
171	181
172	57
173	173
174	72
175	39
183	109
184	39
185	129
186	72
187	151
188	6
189	32
192	17
193	151
194	35
195	6
196	3
197	127
198	50
199	119
200	64
211	101
212	72
213	570
214	111
215	225
216	46
217	17
218	35
219	111
225	46
226	39
227	35
228	109
229	39
230	3
231	25
232	10
239	545
240	111
241	35
242	14
243	32
244	151
245	133
246	68
247	151
248	39
254	177
255	72
256	6
257	35
258	35
260	28
271	324
272	79
273	10
286	835
287	83
288	14
290	6
303	109
304	32
316	6
318	151
319	39
320	3
