Mass Spectrum: 2,4-Hexadiene, 3,4-diiodo-2,5-dimethyl-
Formula: C8H12I2
CAS: 88919-65-7
Molecular weight: 362
m/z	intensity
26	1
27	34
29	9
37	2
38	6
39	80
41	55
42	1
49	1
50	22
51	28
52	27
53	58
54	8
55	2
56	0
61	3
62	10
63	31
64	7
65	63
66	15
67	16
68	4
73	0
74	10
75	6
76	3
77	133
78	25
79	44
80	10
81	0
85	0
86	2
87	0
88	0
89	4
90	1
91	163
92	25
93	403
94	33
103	2
104	0
105	11
106	5
107	93
108	999
109	85
110	3
116	0
117	1
127	35
128	6
129	0
135	0
136	0
137	0
141	0
142	0
143	0
147	0
165	0
170	0
177	0
179	0
186	0
193	0
197	0
200	0
205	0
209	0
220	0
233	0
234	3
235	556
236	47
237	2
249	0
254	7
260	0
279	0
291	0
294	0
301	0
306	0
318	1
320	0
332	0
336	0
362	83
363	8
364	0
