Mass Spectrum: 6.beta.-Hydroxyfluoxymesterone
Formula: C20H29FO4
CAS: 88936-08-7
Molecular weight: 352
m/z	intensity
14	11
27	60
28	20
29	66
31	22
36	11
38	16
39	88
40	37
41	294
42	56
43	999
44	25
45	51
47	26
51	24
52	13
53	155
54	37
55	495
56	51
57	189
58	182
59	94
61	17
63	14
65	83
66	30
67	247
68	90
69	186
70	33
71	421
72	76
73	62
75	14
77	161
78	41
79	233
80	53
81	202
82	64
83	89
84	20
85	77
86	13
87	28
88	18
89	12
91	226
92	39
93	225
94	63
95	211
96	74
97	170
98	52
99	62
100	16
101	23
102	11
103	44
105	196
106	43
107	161
108	70
109	260
110	98
111	132
112	39
113	74
114	26
115	65
116	22
117	80
118	34
119	116
120	35
121	142
122	53
123	171
124	79
125	78
126	34
127	58
128	34
129	45
130	24
131	71
132	32
133	74
134	30
135	97
136	92
137	167
138	201
139	141
140	44
141	30
142	28
143	63
144	26
145	104
146	53
147	101
148	53
149	76
150	34
151	38
152	51
153	30
154	23
155	21
156	17
157	68
158	50
159	99
160	34
161	113
162	36
163	96
164	26
165	46
166	25
167	29
168	11
169	42
170	16
171	56
172	20
173	98
174	32
175	67
176	55
177	107
178	50
179	54
180	38
181	25
182	26
183	55
184	27
185	73
186	59
187	50
188	17
189	80
190	14
191	61
192	25
193	33
194	27
195	35
196	24
197	58
198	29
199	51
200	26
201	84
202	30
203	52
204	25
205	47
206	19
207	49
208	7
209	25
210	15
211	49
213	57
214	23
215	54
216	11
217	16
218	39
219	41
220	16
221	39
222	18
223	60
224	14
225	109
226	36
227	60
228	26
229	50
230	20
231	31
232	12
233	28
234	12
235	23
237	18
238	58
239	137
240	34
241	109
242	45
243	164
244	49
245	28
247	19
249	18
253	65
254	38
255	20
256	84
257	69
259	68
260	20
261	45
262	17
263	70
264	32
265	25
267	28
268	12
270	14
271	24
273	32
275	43
276	22
277	11
281	123
282	57
283	26
285	35
286	19
288	14
294	32
295	363
296	93
297	23
299	93
300	27
301	33
308	56
309	14
314	59
315	22
316	20
317	16
319	34
332	37
334	314
335	58
336	14
337	98
338	26
352	20
