Mass Spectrum: Methasterone
Formula: C21H34O2
CAS: 88979-44-6
Molecular weight: 318
m/z	intensity
38	1
39	93
40	29
41	600
42	65
43	999
44	26
45	36
46	1
50	3
51	18
52	15
53	245
54	61
55	777
56	71
57	194
58	184
59	56
60	4
61	1
63	5
64	3
65	106
66	44
67	630
68	207
69	384
70	35
71	478
72	120
73	11
74	10
75	3
76	3
77	275
78	60
79	587
80	112
81	664
82	113
83	134
84	21
85	57
86	6
87	3
88	3
89	6
90	3
91	522
92	96
93	600
94	145
95	573
96	111
97	136
98	21
99	13
100	2
101	2
102	4
103	38
104	23
105	400
106	111
107	475
108	215
109	384
110	65
111	116
112	15
113	20
114	2
115	47
116	20
117	88
118	58
119	293
120	117
121	395
122	181
123	512
124	137
125	99
126	13
127	11
128	28
129	37
130	20
131	101
132	39
133	206
134	74
135	205
136	138
137	208
138	249
139	50
140	5
141	12
142	9
143	29
144	14
145	108
146	36
147	200
148	64
149	160
150	64
151	95
152	17
153	6
154	2
155	8
156	4
157	36
158	18
159	143
160	44
161	243
162	129
163	335
164	58
165	32
166	5
167	2
168	1
169	6
170	2
171	36
172	23
173	132
174	74
175	180
176	128
177	300
178	80
179	53
180	8
181	5
182	1
183	4
184	2
185	16
186	9
187	68
188	33
189	118
190	49
191	36
192	18
193	21
194	3
197	5
198	2
199	16
200	6
201	36
202	10
203	34
204	20
205	17
206	8
207	2
211	9
212	2
213	45
214	16
215	39
216	22
217	35
218	44
219	14
220	2
225	12
226	4
227	27
228	12
229	119
230	33
231	90
232	25
233	16
234	4
239	1
240	1
241	3
242	7
243	138
244	96
245	421
246	91
247	61
248	60
249	12
250	1
257	9
258	123
259	25
260	137
261	406
262	79
263	8
267	17
268	4
269	1
271	21
272	6
273	1
274	1
275	3
276	5
277	1
281	1
282	3
283	2
284	2
285	351
286	77
287	10
298	1
299	3
300	194
301	48
302	7
303	365
304	78
305	9
318	157
319	36
320	4
