Mass Spectrum: 2,4-Imidazolidinedione, 5-phenyl-
Formula: C9H8N2O2
CAS: 89-24-7
Molecular weight: 176
m/z	intensity
43	30
44	30
50	80
51	180
52	50
53	10
62	20
63	40
64	10
70	30
74	20
75	20
76	40
77	280
78	210
79	10
89	50
90	20
103	30
104	999
105	700
106	60
132	40
133	340
147	30
148	110
149	10
176	960
177	110
178	20
