Mass Spectrum: Benzoic acid, 2-(acetylamino)-
Formula: C9H9NO3
CAS: 89-52-1
Molecular weight: 179
m/z	intensity
14	1
15	21
17	3
18	11
26	1
27	6
28	2
29	1
37	5
38	12
39	41
40	5
41	9
42	8
43	247
44	8
45	7
50	13
51	13
52	15
53	9
54	2
55	1
59	2
61	3
62	9
63	36
64	46
65	67
66	10
67	1
73	6
74	5
75	4
76	9
77	14
78	3
79	2
80	3
81	2
88	1
89	3
90	40
91	44
92	199
93	31
94	2
102	1
103	1
104	2
105	3
106	2
117	14
118	7
119	999
120	95
121	6
132	6
133	1
134	4
135	3
136	2
137	693
138	57
139	4
144	1
146	57
147	5
160	1
161	42
162	9
163	1
164	1
179	476
180	52
181	5
