Mass Spectrum: Erythorbic acid
Formula: C6H8O6
CAS: 89-65-6
Molecular weight: 176
m/z	intensity
14	3
15	8
16	1
19	1
25	3
26	18
27	39
28	26
29	271
30	55
31	160
32	4
33	2
36	4
37	7
38	11
39	24
40	12
42	122
43	153
44	239
45	109
46	31
47	11
49	1
52	4
53	33
54	84
55	23
56	39
58	77
59	93
60	40
61	144
62	5
63	3
66	1
68	8
70	86
71	92
72	52
73	31
74	58
75	3
76	25
84	30
85	571
86	38
87	173
88	42
89	19
90	3
91	28
99	3
100	94
101	70
102	132
103	11
112	14
113	11
115	44
116	999
117	51
118	19
119	128
120	6
128	9
129	3
130	5
131	3
132	1
133	2
141	1
142	2
144	3
145	14
146	11
156	6
157	2
158	5
159	1
174	2
175	5
176	82
177	16
178	1
