Mass Spectrum: Benzyl mandelate
Formula: C15H14O3
CAS: 890-98-2
Molecular weight: 242
m/z	intensity
17	1
18	2
26	1
27	14
28	3
29	1
31	1
37	1
38	6
39	42
40	4
41	9
44	2
49	1
50	16
51	60
52	18
53	12
55	1
58	1
61	2
62	5
63	19
64	6
65	67
66	4
74	5
75	4
76	6
77	175
78	33
79	358
80	24
81	1
86	1
87	1
88	1
89	17
90	16
91	331
92	70
93	5
105	31
106	9
107	999
108	84
109	5
118	12
119	2
152	1
155	1
165	1
167	2
242	2
