Mass Spectrum: 1,6-Diazabicyclo(3.1.0)hexane-5-carboxylic acid-, methyl ester
Formula: C6H10N2O2
CAS: 89019-22-7
Molecular weight: 142
m/z	intensity
14	17
15	199
26	81
27	191
28	322
29	165
30	53
31	34
37	13
38	29
39	259
40	76
41	229
42	223
43	178
44	17
45	79
46	6
51	37
52	59
53	297
54	999
55	878
56	386
57	72
58	13
59	236
60	14
66	75
67	35
68	69
69	21
70	5
71	62
81	163
82	203
83	322
84	55
85	166
86	35
87	15
100	47
101	5
110	547
111	94
112	11
114	89
115	6
127	10
141	31
142	28
143	2
