Mass Spectrum: 2-Naphthalenecarbonitrile, 1-(4-methoxyphenyl)azo-
Formula: C18H13N3O
CAS: 89020-74-6
Molecular weight: 287
m/z	intensity
26	2
27	9
28	0
29	3
37	2
38	15
39	23
40	1
41	6
42	2
43	5
45	0
47	1
48	0
49	10
50	28
51	49
52	20
53	10
54	1
55	3
56	1
57	3
60	0
61	3
62	14
63	80
64	139
65	12
66	4
67	1
68	1
69	2
71	1
73	1
74	14
75	34
76	31
77	334
78	35
79	21
80	8
81	1
82	1
83	1
84	7
85	2
86	4
87	6
88	8
89	4
90	2
91	5
92	248
93	18
94	1
95	1
96	1
97	1
98	3
99	16
100	11
101	17
102	7
103	2
104	2
105	1
106	14
107	999
108	81
109	5
110	1
111	2
112	5
113	6
114	3
115	2
116	0
120	0
121	2
122	3
123	3
124	4
125	51
126	33
127	6
128	1
129	0
133	1
134	1
135	427
136	38
137	3
138	6
139	10
140	9
141	2
142	0
143	1
144	5
149	13
150	2
151	21
152	196
153	39
154	4
155	1
156	0
157	1
162	0
163	2
164	3
165	7
166	2
167	1
168	4
169	2
170	0
171	0
175	0
176	1
177	3
178	1
179	0
180	3
181	1
182	1
183	1
186	0
187	2
188	4
189	20
190	14
191	3
192	1
193	1
200	2
201	4
202	4
203	2
204	1
205	2
206	1
212	1
213	1
214	23
215	17
216	23
217	6
218	2
219	1
220	1
222	0
223	1
224	0
225	1
226	4
227	8
228	9
229	3
230	2
231	2
232	0
233	0
241	1
242	2
243	8
244	13
245	3
246	2
247	1
254	1
255	1
256	2
257	2
258	4
259	6
260	2
272	6
273	1
286	4
287	353
288	84
289	27
290	5
