Mass Spectrum: 2H-Pyran-2-one, 4-ethenyltetrahydro-
Formula: C7H10O2
CAS: 89030-33-1
Molecular weight: 126
m/z	intensity
25	4
26	78
27	435
28	38
29	121
30	16
31	18
35	5
37	21
38	56
39	690
40	127
41	389
42	143
43	95
44	9
45	8
47	7
49	12
50	68
51	95
52	60
53	281
54	999
55	201
56	51
57	9
60	3
61	6
62	8
63	17
64	3
65	55
66	32
67	882
68	140
69	37
70	23
71	9
77	16
78	4
79	36
80	12
81	105
82	49
83	595
84	180
85	15
86	13
91	11
93	4
95	3
96	7
97	18
98	27
99	5
105	3
107	14
108	9
125	5
126	200
127	24
128	3
