Mass Spectrum: 2,2,5,5-Tetramethylcyclopentanone azine
Formula: C18H32N2
CAS: 89050-93-1
Molecular weight: 276
m/z	intensity
26	23
27	289
28	115
29	266
30	24
31	1
38	14
39	369
40	11
41	999
42	125
43	254
44	9
45	3
46	8
47	11
50	14
51	41
52	9
53	185
54	360
55	560
56	804
57	362
58	52
61	44
62	2
63	10
66	42
67	474
68	188
69	735
70	106
71	204
72	90
75	18
77	91
79	162
80	113
81	271
82	134
83	188
84	56
85	3
86	4
87	63
89	4
91	88
92	29
93	136
94	62
95	117
96	113
97	80
98	12
102	9
105	10
106	5
107	61
108	52
109	666
110	92
111	204
112	52
113	8
115	4
120	19
121	29
122	61
123	49
124	864
125	85
126	13
130	1
133	38
134	22
135	3
136	13
137	4
138	207
139	124
140	304
141	24
146	5
147	3
149	2
152	53
153	18
154	20
157	10
159	84
160	25
161	36
162	52
163	11
164	4
165	16
178	9
179	11
180	24
194	57
197	8
205	39
206	9
207	2
208	3
219	2
220	25
221	2
225	10
233	4
234	11
244	2
247	2
248	27
261	302
262	62
263	3
275	106
276	445
277	95
278	10
