Mass Spectrum: 4-[4-Diethylamino-1-methylbutyl]amino-.alpha.-picoline
Formula: C15H27N3
CAS: 89068-63-3
Molecular weight: 249
m/z	intensity
41	37
42	41
43	13
44	22
45	2
51	8
52	3
53	6
54	5
55	7
56	23
57	8
58	75
59	2
61	1
63	2
64	4
65	22
66	4
67	7
68	6
69	15
70	11
71	14
72	27
73	38
74	3
77	3
79	3
80	6
81	2
82	4
84	19
86	999
87	48
91	3
92	18
93	7
94	3
96	3
98	13
99	14
100	2
105	0
106	3
107	6
108	16
109	24
110	4
112	23
113	2
114	3
117	6
118	1
119	6
120	1
121	32
122	2
123	1
124	1
126	11
132	1
133	10
134	1
135	63
136	10
140	9
142	13
143	0
144	0
145	2
146	3
147	11
148	5
149	33
150	7
157	4
159	7
160	3
161	47
162	6
163	19
164	2
173	0
174	1
175	67
176	19
177	44
178	21
179	0
185	0
190	1
192	1
220	50
221	8
234	12
235	1
248	0
249	72
250	11
251	2
252	0
