Mass Spectrum: 1,4-Pentanediamine, N4-(2-(2-(4-bromophenyl)ethenyl)-4-pyridinyl)-N1,N1-diethyl-
Formula: C22H30BrN3
CAS: 89068-67-7
Molecular weight: 415
m/z	intensity
41	48
42	38
43	25
44	27
45	4
46	0
47	1
49	8
50	2
51	16
52	5
53	4
54	4
55	8
56	21
57	9
58	91
59	4
60	2
61	1
62	1
63	3
64	1
65	3
66	2
67	7
68	4
69	16
70	11
71	16
72	30
73	45
74	3
75	2
76	4
77	4
78	5
79	3
80	2
81	1
82	3
83	1
84	17
86	999
87	60
88	2
89	4
90	2
91	1
92	2
93	2
94	3
95	1
96	3
97	4
98	11
99	33
100	4
101	4
102	3
103	5
104	3
105	1
106	1
107	1
108	1
109	0
110	5
111	6
112	17
113	3
114	3
115	2
116	1
117	1
118	0
119	2
120	0
121	1
123	1
124	2
125	1
126	11
127	2
128	2
129	3
131	1
132	1
133	1
135	3
139	2
140	11
141	2
142	9
143	4
144	2
145	1
149	3
150	8
151	10
152	25
153	4
154	1
157	1
159	0
161	1
163	0
164	0
165	1
166	2
167	5
168	2
169	1
171	1
177	2
178	9
179	4
180	3
181	0
185	1
187	0
191	0
192	1
193	4
194	5
195	4
196	1
199	9
200	7
201	3
204	0
205	2
206	2
207	1
208	6
219	1
220	1
221	8
222	2
223	1
233	0
235	0
245	1
247	1
249	1
257	3
258	2
259	3
260	2
261	1
262	1
263	0
272	0
273	6
274	3
275	12
276	4
277	5
285	1
286	1
287	6
288	1
289	4
299	2
300	1
301	21
302	6
303	19
304	5
305	0
313	4
314	1
315	14
316	4
317	8
318	2
319	0
325	1
327	3
328	1
329	6
330	1
331	3
332	0
336	0
339	1
340	1
341	15
342	6
343	20
344	9
345	8
346	6
347	1
357	1
386	20
387	5
388	16
389	4
400	3
401	1
402	3
414	3
415	16
416	7
417	17
418	5
419	0
