Mass Spectrum: 2-Pyrazolin-5-ol, 3-methyl-1-(1-oxopropyl)-5-phenyl-
Formula: C13H16N2O2
CAS: 89074-30-6
Molecular weight: 232
m/z	intensity
33	2
34	0
37	4
38	26
39	181
40	51
41	174
42	122
43	52
44	30
45	8
47	0
48	0
50	82
51	236
52	50
53	32
54	35
55	77
57	410
58	16
59	2
60	0
61	4
62	12
63	38
64	14
65	43
67	18
68	12
69	26
70	24
71	13
72	4
73	8
74	21
75	24
77	687
78	114
79	28
80	3
81	4
82	10
83	12
84	5
85	1
86	3
87	10
88	4
89	24
90	13
91	99
92	15
93	6
94	1
95	1
97	2
98	7
99	44
101	8
102	31
103	47
105	999
106	73
107	10
110	15
111	3
113	184
115	81
116	18
117	34
118	10
119	8
120	5
121	2
125	1
126	6
127	34
128	49
129	45
130	21
131	88
132	21
134	25
135	1
141	1
143	2
144	8
145	29
146	42
147	11
148	51
149	7
150	1
151	0
152	2
154	0
155	3
156	0
157	14
158	67
159	144
160	21
161	52
162	7
163	0
165	1
166	0
171	2
172	0
174	1
175	26
176	76
177	8
178	0
185	1
186	1
187	0
189	0
201	0
202	0
203	3
204	1
213	0
214	5
215	3
217	6
230	0
232	146
233	23
234	1
