Mass Spectrum: Uracil, 6-amino-1,3-diethyl-5-nitroso-
Formula: C8H12N4O3
CAS: 89073-60-9
Molecular weight: 212
m/z	intensity
42	284
43	283
44	631
45	74
46	26
47	7
49	2
50	9
51	16
52	14
53	146
54	83
55	163
56	247
57	39
58	12
59	11
60	32
61	7
63	5
64	1
65	12
66	17
67	48
68	142
69	337
70	453
71	201
72	104
73	35
74	5
77	27
78	19
79	44
80	9
81	29
82	27
83	35
84	18
85	26
86	13
87	8
88	2
89	2
91	22
92	2
93	4
94	17
95	42
96	999
97	31
98	127
99	20
101	4
105	9
106	8
107	26
108	41
109	8
110	13
111	39
112	72
113	95
114	29
115	9
116	1
121	1
122	7
123	8
124	252
125	25
126	20
127	34
129	13
130	1
132	1
135	2
137	4
138	20
139	31
140	27
141	162
142	17
143	7
147	1
149	5
150	22
151	4
152	15
153	6
154	3
155	15
156	19
157	4
163	1
165	1
166	16
167	80
168	28
169	14
170	8
171	2
178	4
181	6
183	31
184	29
185	30
186	2
194	7
195	973
196	106
197	13
198	1
212	193
213	68
214	7
