Mass Spectrum: 2-(Phenylselenyl)butyric acid, ethyl ester
Formula: C12H16O2Se
CAS: 89113-94-0
Molecular weight: 272
m/z	intensity
32	24
34	0
36	1
37	12
38	32
39	534
40	65
41	826
42	114
43	871
44	47
45	435
46	10
47	1
48	0
49	10
50	136
51	426
52	49
53	19
54	7
55	326
56	33
57	26
58	34
59	230
60	10
61	3
62	5
63	38
64	5
65	168
66	33
67	5
68	15
69	371
70	60
71	27
72	2
73	399
74	46
75	51
76	79
77	858
78	819
79	76
80	10
81	5
82	11
83	60
84	5
85	12
86	11
87	999
88	49
89	29
90	16
91	181
92	19
93	70
94	20
95	22
96	1
97	1
98	10
99	18
100	2
101	34
102	13
103	28
104	32
105	88
106	24
107	36
108	6
109	7
110	5
111	2
112	0
113	15
114	17
115	424
116	53
117	162
118	122
119	136
120	18
121	173
122	21
123	48
124	4
125	2
126	3
127	9
128	13
129	17
130	17
131	22
132	5
133	6
134	11
135	13
136	1
137	0
138	4
139	1
140	2
141	6
142	2
143	5
144	9
145	8
146	5
147	4
148	3
149	5
150	6
151	23
152	16
153	174
154	251
155	500
156	277
157	901
158	492
159	187
160	86
161	5
162	1
163	12
164	3
165	8
166	22
167	27
168	28
169	52
170	13
171	54
172	10
173	10
174	8
175	0
176	1
178	0
179	4
180	5
181	12
182	11
183	27
184	9
185	24
186	5
187	4
191	5
193	40
194	30
195	181
196	110
197	389
198	53
199	555
200	59
201	97
202	14
203	0
204	0
213	0
214	0
215	0
216	1
223	1
224	1
225	5
