Mass Spectrum: 1-Propanesulfonyl chloride, 3-bromo-
Formula: C3H6BrClO2S
CAS: 89123-01-3
Molecular weight: 220
m/z	intensity
25	1
26	18
27	79
28	5
29	9
30	0
31	2
33	1
34	0
35	1
36	3
37	8
38	18
39	194
40	24
41	999
42	100
43	3
44	0
45	8
46	3
47	2
48	13
49	5
50	4
51	1
52	0
53	0
55	1
57	3
58	1
59	3
60	0
61	0
62	0
63	2
64	7
65	7
66	1
67	0
69	0
71	0
72	0
73	0
74	0
75	7
76	1
77	11
78	5
79	4
80	1
81	2
82	1
83	7
84	0
85	2
87	0
91	0
92	0
93	25
94	1
95	25
96	0
97	0
99	1
101	1
105	6
106	10
107	4
108	0
109	1
113	1
114	3
115	0
116	1
117	0
119	15
120	234
121	64
122	226
123	47
124	1
127	0
129	0
141	3
143	1
155	5
156	1
157	7
158	1
159	1
160	0
185	25
186	0
187	25
188	1
189	1
220	7
221	0
222	10
223	0
224	2
