Mass Spectrum: N-carbobenzyloxy-.beta.-alanyl-glycine methyl ester
Formula: C14H18N2O5
CAS: 89137-40-6
Molecular weight: 294
m/z	intensity
41	14
42	47
43	91
44	121
45	15
47	1
48	0
49	8
50	8
51	29
52	8
53	3
54	4
55	29
56	58
57	9
58	5
59	24
60	1
61	2
62	12
63	21
64	9
65	122
66	6
67	0
68	1
70	343
71	25
72	15
73	10
74	12
75	1
76	1
77	54
78	13
79	44
80	3
81	0
82	6
83	5
84	16
85	3
86	14
87	5
88	103
89	55
90	300
91	999
92	104
93	4
96	8
97	3
98	34
99	28
100	32
101	4
102	1
103	12
104	8
105	18
106	26
107	385
108	263
109	19
110	2
111	1
112	4
113	4
114	16
115	5
116	11
117	7
118	11
119	3
120	45
121	4
124	0
125	0
126	0
127	60
128	31
129	3
130	1
131	87
132	25
133	4
134	1
135	0
141	1
142	4
143	3
144	6
145	2
146	1
147	0
149	9
150	1
151	0
153	0
155	67
156	5
157	0
158	0
159	70
160	74
161	7
162	5
163	1
164	1
169	6
170	8
171	1
173	0
176	1
177	13
178	3
179	0
180	0
181	1
187	657
188	60
189	8
190	0
191	3
202	1
203	5
204	0
205	64
206	46
207	5
208	0
210	0
222	0
223	0
224	2
233	0
235	1
238	0
245	1
251	2
262	15
263	29
264	4
294	336
295	54
296	4
297	0
