Mass Spectrum: 2-Amino-5-(1,1-ethylenedioxyethyl)-1,3-diazaazulene
Formula: C12H13N3O2
CAS: 89169-91-5
Molecular weight: 231
m/z	intensity
15	9
26	2
27	8
28	16
29	7
30	1
31	2
37	2
38	8
39	18
40	6
41	5
42	9
43	376
44	10
45	8
50	14
51	23
52	14
53	7
54	2
55	2
56	1
57	2
58	4
59	2
61	2
62	10
63	28
64	17
65	13
66	5
67	5
68	1
69	1
71	3
72	15
73	4
74	6
75	25
76	25
77	17
78	8
79	3
80	1
81	1
83	1
85	4
86	23
87	999
88	56
89	27
90	62
91	14
92	4
93	2
95	1
97	1
99	2
100	3
101	9
102	27
103	16
104	8
105	4
106	1
108	19
114	4
115	9
116	28
117	82
118	21
119	4
120	1
127	2
128	9
129	12
130	8
131	12
132	7
133	5
134	1
141	2
142	4
143	11
144	191
145	137
146	27
147	3
149	1
153	1
155	1
156	5
157	4
158	21
159	53
160	8
161	1
168	1
169	2
170	12
171	7
172	119
173	17
174	2
184	1
185	1
186	6
187	13
188	9
189	4
200	12
201	9
202	2
214	2
215	7
216	599
217	79
218	8
230	4
231	516
232	75
233	7
