Mass Spectrum: S,S-Dimethyl 1,2-hydrazinebis(monothioformate)
Formula: C4H8N2O2S2
CAS: 89166-56-3
Molecular weight: 180
m/z	intensity
43	55
44	34
45	449
46	194
47	917
48	192
49	266
60	27
61	56
62	45
75	999
76	85
77	107
79	27
89	26
94	28
105	33
132	791
133	776
152	86
180	387
