Mass Spectrum: Methyl(methyl 2,4-di-O-methyl-.alpha.-D-mannopyranoside)uronate
Formula: C10H18O7
CAS: 89177-24-2
Molecular weight: 250
m/z	intensity
41	39
42	34
43	40
45	169
55	29
57	31
58	8
59	99
60	9
61	19
69	17
71	39
73	83
74	389
75	189
85	389
87	99
88	169
89	99
99	21
101	999
102	49
103	15
104	24
111	7
113	7
115	8
116	8
117	169
127	12
128	14
131	15
141	15
145	7
159	21
161	4
164	1
169	4
173	7
187	9
191	10
201	27
202	2
218	2
219	5
