Mass Spectrum: 5,9,23-Tricontatrienoic acid, methyl ester
Formula: C31H56O2
CAS: 89188-22-7
Molecular weight: 460
m/z	intensity
53	50
54	169
55	639
56	90
57	129
58	10
59	50
65	30
66	30
67	579
68	159
69	469
70	50
71	70
72	10
74	119
75	40
77	30
78	20
79	209
80	299
81	999
82	269
83	339
84	30
85	70
86	10
87	50
88	20
91	60
92	30
93	159
94	319
95	379
96	239
97	269
98	50
99	149
100	10
101	20
102	10
104	10
105	40
106	70
107	149
108	189
109	679
110	259
111	129
112	20
113	10
115	20
116	10
117	20
118	20
119	60
120	80
121	249
122	119
123	149
124	70
125	40
126	10
127	10
128	10
129	20
130	10
131	50
132	20
133	70
134	60
135	279
136	219
137	119
138	60
139	30
140	199
141	479
142	60
143	30
144	10
145	30
146	10
147	100
148	90
149	249
150	189
151	80
152	40
153	20
154	80
155	20
157	10
158	10
159	20
160	10
161	70
162	50
163	109
164	90
165	60
166	60
167	70
168	50
169	20
171	10
173	10
175	40
176	20
177	50
178	40
179	50
180	269
181	129
182	50
183	20
185	10
187	10
189	20
190	10
191	30
192	20
193	60
194	189
195	60
196	20
197	10
199	10
201	10
203	10
204	10
205	30
206	20
207	50
208	60
209	20
210	10
217	10
219	30
220	20
221	40
222	30
223	10
224	10
231	10
233	40
234	20
235	40
236	30
237	10
238	10
245	10
247	40
248	20
249	30
250	20
251	10
252	10
259	10
260	10
261	30
262	20
263	30
264	20
265	10
273	10
275	40
276	10
277	20
278	10
279	10
287	10
288	10
289	40
290	20
291	20
292	20
293	10
301	10
302	10
303	30
304	10
305	20
306	10
307	10
315	10
316	10
317	30
318	60
319	30
320	10
329	10
330	10
331	30
332	30
333	20
334	10
343	10
344	10
345	139
346	50
347	30
348	10
357	20
358	10
359	119
360	50
361	30
362	10
371	10
372	10
374	30
375	30
376	10
378	10
384	20
385	10
386	60
387	30
388	10
389	30
390	10
399	10
401	10
403	20
404	10
411	70
412	20
413	10
417	10
428	70
429	60
430	20
431	10
459	10
460	179
461	60
462	10
