Mass Spectrum: 4-Decynoic acid, methyl ester
Formula: C11H18O2
CAS: 89199-82-6
Molecular weight: 182
m/z	intensity
26	26
27	354
28	36
29	482
30	17
31	29
33	7
37	7
38	33
39	476
40	138
41	721
42	101
43	296
44	22
45	64
46	7
50	56
51	164
52	219
53	305
54	94
55	487
56	55
57	104
58	10
59	468
60	15
61	9
62	22
63	79
64	35
65	309
66	259
67	999
68	136
69	109
70	15
71	42
72	65
73	9
74	140
75	28
76	9
77	286
78	83
79	729
80	244
81	593
82	132
83	126
84	925
85	407
86	45
87	50
88	6
89	9
90	5
91	169
92	33
93	557
94	138
95	238
96	69
97	805
98	135
99	34
100	8
101	10
103	8
104	5
105	51
106	22
107	240
108	481
109	255
110	31
111	371
112	69
113	23
114	7
115	13
117	13
118	4
119	8
121	68
122	108
123	38
124	15
125	246
126	534
127	60
128	6
131	10
132	9
133	41
134	5
135	26
136	4
137	6
138	4
139	63
140	29
141	10
149	42
150	73
151	139
152	17
153	21
154	26
155	4
167	521
168	59
169	6
170	4
181	40
182	47
183	8
