Mass Spectrum: 2,2-Dimethyl-N-ethylpyrrolidine
Formula: C8H17N
CAS: 89214-93-7
Molecular weight: 127
m/z	intensity
27	30
28	50
29	45
30	45
39	30
41	85
42	160
44	35
55	110
56	70
58	30
67	20
70	70
71	40
82	40
83	45
84	200
110	30
112	999
113	80
127	80
