Mass Spectrum: N-Ethyl-N-(but-3-enyl)pentan-3-amine
Formula: C11H23N
CAS: 89214-96-0
Molecular weight: 169
m/z	intensity
27	20
28	45
29	55
30	75
41	65
42	30
43	105
44	25
55	165
56	50
58	999
59	30
71	20
84	20
86	30
128	405
129	35
140	180
169	2
