Mass Spectrum: Cyclopentanol, 2-mercapto-
Formula: C5H10OS
CAS: 89211-25-6
Molecular weight: 118
m/z	intensity
28	69
29	364
30	42
31	151
33	15
34	20
35	45
36	1
37	16
38	36
39	332
40	62
41	816
42	53
43	212
44	69
45	309
46	78
47	208
48	28
49	14
50	17
51	28
52	9
53	78
54	63
55	500
56	636
57	644
58	109
59	143
60	186
61	222
62	35
63	21
64	2
65	88
66	162
67	999
68	69
69	61
70	5
71	130
72	79
73	126
74	135
75	21
76	40
77	8
78	1
79	1
80	0
81	6
82	4
83	369
84	300
85	363
86	41
87	276
88	17
89	50
90	7
91	2
92	0
93	1
95	1
96	0
97	10
98	2
99	90
100	920
101	70
102	41
103	3
104	0
105	0
107	0
108	0
109	0
110	0
111	0
113	0
114	0
115	2
116	0
117	4
118	121
119	9
120	6
121	0
