Mass Spectrum: 1,7,7-Trimethylbicyclo[2.2.1]heptan-2-yl 3,5-dinitrobenzoate
Formula: C17H20N2O6
CAS: 892105-21-4
Molecular weight: 348
m/z	intensity
27	11
28	3
29	19
30	10
38	1
39	23
40	6
41	118
42	7
43	61
44	3
45	2
46	2
50	3
51	6
52	3
53	35
54	6
55	104
56	7
57	16
58	1
59	2
61	1
62	6
63	19
64	3
65	18
66	7
67	99
68	27
69	105
70	8
71	6
72	1
74	43
75	238
76	19
77	58
78	11
79	85
80	112
81	100
82	35
83	38
84	3
85	1
87	1
88	1
89	3
91	85
92	126
93	466
94	83
95	999
96	79
97	11
98	1
101	2
102	4
103	78
104	10
105	35
106	8
107	85
108	94
109	89
110	183
111	21
112	1
115	2
117	2
119	17
120	20
121	592
122	59
123	21
124	2
125	1
128	1
133	3
134	2
136	686
137	85
138	5
149	272
150	23
151	3
152	2
153	5
154	1
163	2
165	5
166	11
167	3
168	5
179	34
180	3
181	1
195	664
196	58
197	9
198	1
213	1
235	1
249	1
253	1
261	1
263	1
264	3
265	3
277	1
278	5
279	2
289	1
291	1
292	1
293	1
304	2
305	83
306	13
307	3
318	1
319	1
333	16
334	3
335	1
348	17
349	4
