Mass Spectrum: Carbamate, N-(2-amino-2-thioxoethyl)-, (1,1-dimethylethyl)ester
Formula: C7H14N2O2S
CAS: 89226-13-1
Molecular weight: 190
m/z	intensity
26	4
27	47
28	71
29	183
30	313
31	28
33	7
34	5
35	0
36	2
37	2
38	6
39	75
40	18
41	311
42	33
43	50
44	34
45	19
46	8
47	11
48	3
49	0
50	4
51	6
52	1
53	11
54	4
55	38
56	65
57	999
58	48
59	84
60	213
61	139
62	45
63	7
64	1
65	1
69	3
70	1
71	3
72	2
73	104
74	201
75	548
76	45
77	7
78	0
81	1
82	0
83	6
84	4
85	1
86	0
87	0
88	3
89	7
90	25
91	13
92	1
93	1
94	0
95	2
96	1
97	2
98	0
99	11
100	8
101	6
102	4
103	0
104	3
105	2
115	2
116	13
117	413
118	21
119	19
120	0
121	0
129	0
130	2
131	5
132	0
133	1
134	573
135	70
136	31
137	3
138	0
139	0
140	0
190	323
191	31
192	17
193	1
