Mass Spectrum: Bicyclo[3.2.0]heptane, 2-methylene-
Formula: C8H12
CAS: 89243-94-7
Molecular weight: 108
m/z	intensity
25	7
26	52
27	199
28	45
29	37
30	0
31	0
32	2
37	8
38	24
39	262
40	48
41	274
42	14
43	3
44	4
45	3
46	0
48	0
49	3
50	45
51	100
52	66
53	94
54	98
55	25
56	3
57	0
58	0
59	0
61	3
62	9
63	22
64	5
65	113
66	74
67	167
68	26
69	2
70	0
71	0
73	1
74	6
75	5
77	302
78	123
79	999
80	678
81	53
82	3
83	0
84	0
85	0
86	0
87	0
89	3
90	1
91	219
92	26
93	897
94	61
95	4
96	1
97	0
98	0
99	0
101	0
102	0
103	4
104	1
105	14
106	3
107	54
108	309
109	26
110	2
