Mass Spectrum: Catechine, (2R-cis)-, 5TMS derivative
Formula: C30H54O6Si5
CAS: 89267-68-5
Molecular weight: 650
m/z	intensity
17	1
28	15
29	22
32	8
33	3
40	1
41	3
43	8
44	14
45	35
46	3
47	7
57	5
59	8
72	3
73	999
74	93
75	80
76	5
77	7
85	4
89	2
96	5
103	10
104	3
105	2
115	2
117	4
131	7
133	15
134	3
147	42
148	9
149	8
150	1
177	5
178	2
179	95
180	14
181	4
189	4
191	9
192	4
193	9
203	4
205	3
206	2
207	14
209	4
221	5
235	5
237	4
239	5
249	12
250	3
251	6
253	3
254	2
265	17
266	4
267	92
268	22
269	9
279	4
280	47
281	41
282	15
283	14
284	6
293	4
294	6
295	6
296	4
307	5
318	12
325	7
326	4
337	1
339	5
341	3
352	3
353	9
354	5
355	192
356	68
357	31
358	7
366	4
368	852
369	300
370	147
371	33
372	9
373	2
382	3
383	27
384	8
385	5
397	2
461	7
462	4
487	2
547	2
559	8
560	5
576	5
634	18
635	9
649	125
650	65
651	23
652	4
