Mass Spectrum: 3,5-Dimethyl-4-pyrazolesulfonic acid
Formula: C5H8N2O3S
CAS: 89280-34-2
Molecular weight: 176
m/z	intensity
34	13
36	13
37	48
38	144
39	682
40	409
41	386
42	713
43	99
44	83
45	59
48	91
49	18
50	49
51	98
52	84
53	134
54	106
55	56
56	23
57	21
58	16
61	30
62	75
63	140
65	999
66	178
67	36
68	82
69	26
70	19
77	28
79	28
80	21
81	69
82	18
94	576
95	441
96	210
97	16
110	25
141	14
143	14
158	18
159	81
176	528
177	33
178	21
