Mass Spectrum: 2(5H)-Furanone, 5-(2-hydroxyethylidene)-
Formula: C6H6O3
CAS: 89291-42-9
Molecular weight: 126
m/z	intensity
42	50
43	140
44	130
45	10
53	60
54	890
55	10
56	10
60	10
68	20
69	70
70	20
71	50
79	30
82	999
83	40
84	10
96	30
97	110
98	10
109	20
110	20
126	190
127	40
