Mass Spectrum: Methyl 3-bromo-2,2-dichloro-propanoate
Formula: C4H5BrCl2O2
CAS: 89294-73-5
Molecular weight: 234
m/z	intensity
59	999
60	100
61	717
62	29
63	227
85	69
89	229
91	79
95	40
96	748
97	29
98	478
100	79
105	20
107	9
111	50
113	29
119	19
120	69
122	19
123	9
139	40
140	10
141	50
155	9
167	10
169	19
175	100
177	149
191	10
