Mass Spectrum: Trifluoroacetoacetyl-2-naphthalene
Formula: C14H9F3O2
CAS: 893-33-4
Molecular weight: 266
m/z	intensity
50	15
51	34
57	6
58	12
62	7
63	33
64	26
69	999
70	62
71	12
74	19
75	41
76	23
77	58
78	23
84	25
87	12
89	11
98	141
99	30
100	7
101	32
102	13
113	6
115	40
119	8
125	6
126	72
127	273
128	77
129	201
130	19
131	5
133	10
139	62
140	24
141	24
149	6
150	11
151	22
152	38
153	6
155	107
156	12
168	10
169	9
197	540
198	74
199	6
265	83
266	763
267	114
268	10
