Mass Spectrum: 15-Hexadecenoic acid, 14-hydroxy-15-methyl-
Formula: C17H32O3
CAS: 89328-43-8
Molecular weight: 284
m/z	intensity
26	5
27	72
28	8
29	131
30	5
31	65
36	1
39	60
40	13
41	356
42	68
43	317
44	24
45	71
46	0
50	1
51	6
52	2
53	42
54	36
55	355
56	64
57	133
58	131
59	63
60	154
61	27
62	1
63	1
65	9
66	9
67	135
68	114
69	225
70	49
71	999
72	255
73	173
74	23
75	8
76	0
77	16
78	4
79	31
80	26
81	191
82	278
83	148
84	106
85	83
86	105
87	56
88	9
89	2
91	19
92	4
93	29
94	29
95	188
96	107
97	116
98	173
99	89
100	13
101	18
102	3
103	1
104	1
105	7
106	2
107	45
108	24
109	76
110	50
111	72
112	75
113	20
114	9
115	25
116	4
117	2
118	0
119	15
120	4
121	32
122	15
123	34
124	22
125	56
126	32
127	11
128	24
129	44
130	5
131	3
132	0
133	6
134	3
135	21
136	20
137	17
138	22
139	25
140	20
141	18
142	4
143	12
144	1
145	3
146	0
147	3
148	1
150	4
151	9
152	12
153	17
154	12
155	6
156	2
157	8
158	1
159	1
161	3
162	4
163	21
164	7
165	5
166	4
167	10
168	8
169	5
170	2
171	26
172	3
173	0
174	0
175	1
176	1
177	11
178	8
179	4
180	14
181	39
182	10
183	4
184	1
185	9
186	1
187	4
188	1
189	2
191	10
192	5
193	5
194	3
195	24
196	21
197	14
198	3
199	4
200	0
205	6
206	4
207	2
208	2
209	17
210	12
211	3
212	1
213	1
214	18
215	3
218	0
219	1
220	6
221	2
222	2
223	49
224	18
225	11
226	1
227	1
228	0
232	0
233	0
236	2
237	8
238	24
239	4
240	1
241	20
242	4
243	0
248	4
249	1
250	1
251	10
266	109
267	22
268	4
283	0
284	2
285	0
