Mass Spectrum: Pyridine, 2,6-diamino-3-nitroso-
Formula: C5H6N4O
CAS: 89323-10-4
Molecular weight: 138
m/z	intensity
34	9
37	119
38	272
39	375
40	246
41	98
42	123
43	521
44	75
45	7
49	0
50	17
51	109
52	369
53	298
54	999
55	77
56	9
57	5
60	6
62	11
63	37
64	115
65	162
66	184
67	59
68	67
69	43
70	10
73	4
75	2
76	14
77	41
78	46
79	145
80	142
81	790
82	49
83	5
85	0
90	5
91	27
92	30
93	11
94	6
95	35
96	12
97	9
104	3
105	7
106	4
107	57
108	348
109	29
120	10
121	23
122	25
123	4
138	914
139	75
140	1
