Mass Spectrum: 1-Propene, 1-methoxy-2-methyl-1-[(dimethyltert-butylsilyl)oxy]-
Formula: C11H24O2Si
CAS: 89337-62-2
Molecular weight: 216
m/z	intensity
39	22
40	7
41	101
42	66
43	90
44	21
45	85
46	6
47	24
55	19
56	6
57	26
58	50
59	275
60	23
61	22
69	43
70	330
71	55
72	24
73	999
74	91
75	167
76	11
77	6
85	10
86	17
87	18
88	6
89	920
90	76
91	41
99	33
100	5
101	7
102	28
114	18
115	30
117	17
119	7
128	11
129	23
131	32
132	8
135	7
143	11
145	28
146	8
147	11
159	38
160	148
161	20
162	6
201	5
216	112
217	19
218	5
