Mass Spectrum: Benzenepropanoic acid, .beta.-hydroxy-.beta.-phenyl-, ethyl ester
Formula: C17H18O3
CAS: 894-18-8
Molecular weight: 270
m/z	intensity
14	2
15	5
17	1
18	1
26	2
27	12
28	5
29	26
31	1
38	1
39	6
41	2
42	17
43	125
44	3
45	24
46	3
50	19
51	80
52	7
53	1
60	9
61	24
62	2
63	8
64	3
65	5
69	3
70	17
73	8
74	9
75	9
76	26
77	381
78	37
79	2
82	1
86	2
87	6
88	25
89	9
90	2
91	15
92	2
94	2
98	1
101	2
102	6
103	10
104	6
105	999
106	80
107	5
112	2
113	1
115	5
119	1
120	9
121	2
126	3
127	4
128	3
129	1
131	1
139	3
146	1
147	20
148	2
150	3
151	10
152	31
153	17
154	24
155	12
156	1
163	2
164	2
165	16
166	4
167	3
176	5
177	6
178	31
179	25
180	23
181	64
182	355
183	912
184	129
185	10
192	8
193	85
194	9
195	3
196	3
197	1
205	1
206	2
207	33
208	6
223	7
224	4
225	38
226	7
238	1
251	6
252	33
253	6
254	1
270	60
271	9
272	1
