Mass Spectrum: Butanoic acid, 2-bromo-4,4,4-trichloro-, ethyl ester
Formula: C6H8BrCl3O2
CAS: 89415-48-5
Molecular weight: 296
m/z	intensity
36	70
37	20
38	40
39	60
41	20
42	20
43	60
44	40
45	90
47	20
49	40
51	10
53	10
54	10
55	360
56	20
61	50
63	40
65	30
66	20
67	20
68	10
71	20
72	20
73	120
74	20
75	50
76	10
77	40
79	20
80	20
82	40
83	120
84	20
85	70
87	10
89	20
91	20
93	20
94	20
95	30
96	20
97	20
98	10
99	10
101	40
102	10
103	10
107	30
108	20
109	999
110	50
111	700
112	40
113	110
114	10
117	80
118	10
119	90
120	40
121	30
122	30
123	10
125	20
127	160
129	200
131	50
133	10
135	40
136	20
137	70
138	20
139	30
140	10
141	20
143	120
145	100
147	40
151	10
153	230
154	60
155	180
156	40
157	50
161	10
163	10
169	10
171	120
172	20
173	110
174	10
175	60
177	10
179	40
181	100
182	10
183	50
187	40
188	20
189	120
190	40
191	130
192	20
193	40
197	40
199	50
201	10
217	10
223	10
224	10
225	20
226	20
233	70
235	80
237	40
251	20
253	30
255	20
261	9
263	10
268	20
270	20
272	10
