Mass Spectrum: 2,4(1H,3H)-Pyrimidinedione, dihydro-1,3-dimethyl-6-[(trimethylsilyl)oxy]-
Formula: C9H18N2O3Si
CAS: 89447-83-6
Molecular weight: 230
m/z	intensity
25	0
26	0
27	22
28	19
29	7
30	9
31	4
37	0
38	0
39	2
40	4
41	10
42	241
43	33
44	8
45	75
46	6
47	73
48	4
49	3
51	1
52	4
53	7
54	14
55	91
56	27
57	9
58	15
59	29
60	7
61	32
62	2
63	1
64	0
66	1
67	0
68	2
69	3
70	5
71	4
72	10
73	125
74	20
75	999
76	75
77	37
78	1
79	2
80	0
81	3
82	39
83	85
84	52
85	4
86	4
87	4
88	4
89	2
90	2
91	0
93	1
96	1
97	1
98	1
99	2
100	1
101	43
102	5
103	3
107	0
109	0
111	4
112	4
113	1
114	2
115	2
116	32
117	4
118	1
125	1
126	0
127	0
128	1
129	2
130	21
131	24
132	27
133	3
134	1
138	0
140	148
141	43
142	4
143	17
144	3
145	14
146	1
147	0
155	0
156	1
157	1
158	135
159	17
160	6
172	1
173	10
174	1
185	1
186	1
187	2
188	2
199	0
201	3
202	1
213	1
215	176
216	28
217	9
218	0
228	1
229	20
230	40
231	7
232	1
