Mass Spectrum: Borane, bromobis[(1-methylethyl)thio]-
Formula: C6H14BBrS2
CAS: 89449-88-7
Molecular weight: 240
m/z	intensity
26	5
27	88
29	2
33	1
34	0
35	3
36	0
37	4
38	10
39	87
40	11
41	238
42	61
43	999
44	28
46	3
47	12
49	1
57	1
58	7
59	25
60	13
61	23
63	1
66	3
68	0
69	1
71	1
73	3
74	12
75	31
76	46
77	5
78	2
79	1
80	13
81	3
82	9
83	0
85	5
103	31
104	0
105	1
108	14
110	1
117	3
118	49
119	66
120	6
125	0
137	2
139	3
150	9
152	2
153	1
154	4
155	8
156	5
157	8
158	2
159	1
160	4
161	15
162	2
163	10
164	3
165	13
166	2
167	4
172	0
178	2
182	1
183	6
184	1
185	5
193	1
194	2
195	2
196	17
197	74
198	79
199	81
200	68
201	8
202	4
204	0
205	0
239	19
240	71
241	25
242	79
243	4
