Mass Spectrum: Hexa-t-butylcyclotrisilane
Formula: C24H54Si3
CAS: 89463-49-0
Molecular weight: 426
m/z	intensity
50	19
51	4
52	34
53	8
54	82
55	99
56	376
57	142
58	999
60	108
61	45
63	7
64	12
65	7
66	9
67	28
68	7
69	79
70	29
71	130
72	35
73	999
74	594
75	273
76	11
77	15
78	3
79	10
81	22
82	9
83	152
84	37
85	833
86	150
87	145
88	106
89	57
90	9
91	10
92	4
93	11
95	94
96	18
97	467
98	64
99	845
100	220
101	370
102	211
103	162
104	29
105	16
106	5
107	5
108	14
109	82
110	16
111	353
112	64
113	595
114	92
115	365
116	172
117	277
118	40
119	28
120	4
121	7
123	72
124	12
125	160
126	59
127	975
128	144
129	691
130	294
131	431
132	83
133	70
134	11
135	8
137	50
138	9
139	423
140	77
141	370
142	77
143	353
144	223
145	180
146	37
147	47
148	9
149	6
151	19
152	4
153	188
154	25
155	343
156	62
157	265
158	56
159	169
160	34
161	20
162	4
165	13
166	3
167	24
168	7
169	204
170	49
171	364
172	418
173	169
174	50
175	25
176	7
177	3
179	8
181	9
182	6
183	72
184	22
185	150
186	53
187	97
188	23
189	27
190	3
191	7
193	3
195	8
197	69
198	17
199	49
200	51
201	86
202	24
203	27
204	6
205	10
207	10
211	31
212	13
213	26
214	6
215	74
216	27
217	14
218	4
219	8
221	5
225	10
226	11
227	178
228	214
229	79
230	25
231	11
233	7
239	8
240	3
241	5
242	3
243	9
244	4
245	11
246	3
247	5
253	5
255	44
256	13
257	65
258	55
259	21
260	6
261	7
269	3
271	13
272	12
273	3
274	3
275	3
283	10
284	34
285	14
286	5
287	3
299	4
303	3
311	3
313	78
314	119
315	39
316	16
317	4
329	4
355	35
356	9
357	4
369	8
370	35
371	16
372	6
385	4
401	8
411	4
412	5
426	193
427	80
428	34
429	11
