Mass Spectrum: Uracil, N,N'-dibutyl-5-fluoro-
Formula: C12H19FN2O2
CAS: 89501-12-2
Molecular weight: 242
m/z	intensity
57	999
59	60
84	60
115	70
116	50
128	20
129	20
130	330
131	930
142	20
143	140
144	800
185	260
186	340
187	590
188	60
199	90
200	280
213	80
225	360
227	20
242	200
