Mass Spectrum: AB-005
Formula: C23H32N2O
CAS: 895155-25-6
Molecular weight: 352
m/z	intensity
40	2
41	22
42	33
43	8
44	7
48	1
50	1
51	2
52	1
53	6
54	4
55	28
56	6
57	8
58	4
59	1
62	1
63	1
64	1
65	3
66	1
67	9
68	15
69	11
70	93
71	5
73	1
74	1
75	2
76	2
77	7
78	2
79	5
80	4
81	10
82	17
83	11
84	4
85	1
86	1
87	1
88	1
89	4
90	1
91	1
92	1
93	1
94	8
95	3
96	49
98	999
99	71
100	3
101	4
102	11
103	5
104	1
105	1
106	1
107	1
108	1
109	2
110	6
111	4
112	20
113	2
114	2
115	8
116	4
117	4
118	1
120	1
125	4
126	1
127	3
128	12
129	30
130	15
131	2
132	1
133	1
139	1
140	1
141	2
142	2
143	7
144	7
145	1
146	1
147	1
151	1
152	2
153	2
154	6
155	2
156	3
157	8
158	7
159	1
164	1
165	1
166	2
167	9
168	6
169	2
170	2
171	1
172	2
173	1
177	1
178	1
179	1
180	10
181	6
182	5
183	3
184	2
185	1
187	1
191	1
192	1
193	2
194	5
195	3
196	5
197	1
198	1
199	1
204	1
206	1
208	1
209	1
210	4
211	1
212	1
213	1
217	1
218	1
220	1
221	1
222	1
223	1
224	14
225	3
226	1
227	1
236	1
237	1
238	3
239	6
240	1
241	1
251	1
252	1
253	1
254	5
255	4
256	1
266	1
267	1
269	1
279	1
307	3
308	1
335	1
341	1
350	2
351	1
352	1
353	1
