Mass Spectrum: Butanoic acid, 3-(ethylthio)-
Formula: C6H12O2S
CAS: 89534-40-7
Molecular weight: 148
m/z	intensity
26	26
28	23
29	5
30	25
31	1
32	6
33	20
34	100
37	7
38	15
39	210
40	33
41	852
42	87
43	197
44	11
45	240
46	67
47	144
48	5
49	8
53	2
55	20
57	11
58	61
59	259
60	242
61	999
62	134
63	36
64	5
68	8
69	66
70	4
71	21
72	5
73	88
74	32
75	26
77	10
85	9
86	7
87	96
88	56
89	973
90	25
91	58
100	33
101	275
102	31
103	38
104	2
105	3
118	26
119	177
120	12
121	8
131	4
133	13
148	869
149	30
150	19
