Mass Spectrum: Sulfide, methyl 1-methyl-2-butenyl
Formula: C6H12S
CAS: 89534-73-6
Molecular weight: 116
m/z	intensity
27	99
29	16
30	0
31	0
33	1
34	1
35	3
36	0
37	14
38	35
39	268
40	40
41	999
42	42
43	13
44	3
45	115
46	27
47	69
48	11
49	13
50	16
51	25
52	9
53	87
54	14
55	24
56	0
57	3
58	8
59	34
60	4
61	26
62	5
63	7
64	0
65	18
66	5
67	68
68	107
69	396
70	21
71	4
72	1
73	4
74	0
75	10
76	0
77	0
79	0
81	0
82	0
83	0
84	1
85	11
86	5
87	1
88	0
97	1
99	2
100	1
101	18
102	0
103	0
115	0
116	103
117	7
118	4
119	0
