Mass Spectrum: Sulfide,1- propenyl 1-propynyl
Formula: C6H8S
CAS: 89533-93-7
Molecular weight: 112
m/z	intensity
21	2
22	4
23	19
24	8
25	7
26	82
27	266
30	3
31	21
32	8
33	1
34	41
35	7
36	46
37	130
38	133
39	982
40	127
41	491
42	84
44	3
45	891
46	52
47	54
48	8
49	16
50	41
51	84
52	32
53	196
54	13
56	18
57	20
58	144
59	437
60	22
61	28
62	9
63	27
65	89
66	58
67	190
68	93
69	383
70	112
71	758
72	553
73	77
74	80
77	304
78	128
79	71
80	7
81	8
82	17
83	53
84	23
85	79
87	3
89	1
91	1
95	2
96	7
97	466
98	15
99	44
100	2
103	13
104	5
108	1
109	19
110	16
111	654
112	999
113	120
114	34
115	4
