Mass Spectrum: 3-tert-Butylsulfanyl-3-fluoro-2-trifluoromethyl-acrylic acid methyl ester
Formula: C9H12F4O2S
CAS: 89563-09-7
Molecular weight: 260
m/z	intensity
34	1
35	1
37	5
39	191
41	590
42	33
43	4
44	4
45	17
46	2
47	6
48	1
49	4
50	7
51	10
52	3
53	15
55	47
57	999
58	91
59	90
60	4
61	4
63	44
64	2
65	3
66	1
69	50
71	13
72	2
73	17
74	8
75	20
76	3
77	3
78	1
79	1
81	16
82	1
83	1
84	3
85	1
87	7
88	1
89	1
90	4
91	3
93	14
94	25
95	2
96	1
97	7
98	1
100	5
101	1
103	1
104	1
105	1
106	6
107	3
108	1
109	1
110	1
112	4
113	20
114	1
115	1
116	1
117	1
118	1
119	1
120	1
121	1
122	1
123	1
125	7
126	2
127	2
128	1
129	1
131	3
132	1
133	1
134	1
135	1
137	2
138	1
139	1
140	1
141	1
144	19
145	2
146	1
147	4
148	1
149	1
150	1
151	1
153	11
154	2
155	1
156	1
157	1
158	1
159	1
160	1
161	1
162	1
163	1
165	5
166	1
167	1
169	1
170	1
172	9
173	4
174	1
175	1
176	1
177	1
178	1
179	1
180	1
181	1
184	4
185	1
186	1
187	1
188	1
189	1
190	1
191	1
193	1
194	1
195	1
197	1
198	1
199	1
200	1
201	1
203	2
204	1
205	2
206	1
207	1
208	1
211	1
213	3
214	1
215	1
219	1
225	1
227	1
228	1
229	1
230	1
231	1
240	1
241	1
242	1
245	1
246	1
260	2
261	1
262	1
