Mass Spectrum: Butanoic acid, 4-[1-(oxobutyl)amino]phenyl ester
Formula: C14H19NO3
CAS: 89573-90-0
Molecular weight: 249
m/z	intensity
22	6
25	11
26	1
27	74
28	3
29	1
30	15
31	2
32	1
33	32
34	1
36	1
39	38
40	68
41	22
42	12
43	297
44	1
45	1
46	5
50	1
51	8
52	1
53	23
54	1
55	36
56	4
57	1
58	4
60	5
63	5
64	1
65	1
66	8
67	3
68	1
69	1
70	11
71	103
72	2
73	1
75	1
77	7
78	1
79	14
80	7
81	27
82	1
83	4
84	1
85	1
91	1
93	15
94	9
96	1
97	1
98	8
104	7
105	5
107	6
108	46
109	999
110	61
111	8
113	6
115	1
122	4
123	2
124	10
128	4
129	1
131	4
132	4
133	5
135	1
136	7
137	14
139	5
143	4
148	4
150	6
151	1
157	7
162	4
164	2
170	3
179	333
180	39
181	6
206	1
207	4
208	7
209	2
211	1
217	6
224	2
237	4
248	4
249	24
250	9
251	4
