Mass Spectrum: Hexanoic acid, 4-(hexanoylamino)phenyl ester
Formula: C18H27NO3
CAS: 89573-91-1
Molecular weight: 305
m/z	intensity
33	1
34	1
35	0
36	1
37	6
39	255
41	568
42	161
43	999
44	35
45	3
46	0
48	0
49	1
50	17
51	36
52	62
53	101
55	232
56	31
57	36
58	2
59	1
61	2
62	7
63	23
64	18
65	36
66	8
67	15
68	7
69	34
71	213
73	2
74	3
75	3
76	6
77	29
78	12
79	34
80	74
81	68
82	10
83	6
84	3
85	3
86	0
87	1
88	0
89	3
90	5
91	18
92	12
93	11
94	9
95	3
96	1
97	4
99	185
100	10
101	1
102	1
103	2
104	5
105	15
106	10
107	45
108	153
109	777
110	55
111	4
112	3
113	1
114	0
115	1
116	1
118	3
119	11
120	6
121	6
122	14
123	2
124	0
125	1
126	0
127	0
128	0
129	1
130	1
131	1
132	2
133	3
134	5
135	10
136	7
137	0
139	0
140	0
141	0
142	0
143	0
144	0
145	0
146	1
147	1
148	3
149	4
150	8
151	41
152	4
153	0
156	0
157	0
160	0
161	0
162	1
163	2
164	3
165	1
166	0
167	0
171	4
172	0
173	0
175	0
177	1
178	1
179	0
185	0
189	0
190	1
191	0
192	0
193	0
199	0
201	0
202	0
203	1
205	8
206	12
207	247
208	39
209	3
213	0
218	0
219	0
221	1
223	0
224	0
225	0
232	0
234	1
235	0
240	0
241	0
249	0
250	0
255	0
262	0
270	0
276	1
283	0
291	0
302	0
303	0
304	2
305	12
306	2
307	0
