Mass Spectrum: 2-Benzyl-4-methoxy-6-methyl-5-nitroisoindole-1,3-dione
Formula: C17H14N2O5
CAS: 89586-41-4
Molecular weight: 326
m/z	intensity
25	0
26	3
27	19
28	23
29	9
30	23
31	3
37	4
38	11
39	86
40	8
41	30
42	15
43	15
44	3
45	1
46	1
49	2
50	62
51	105
52	35
53	21
54	3
55	12
56	6
57	14
58	0
59	5
60	3
61	11
62	38
63	104
64	36
65	170
66	21
67	25
68	4
69	8
70	14
71	7
72	0
73	6
74	27
75	46
76	87
77	159
78	67
79	38
80	11
81	4
82	4
83	4
84	2
85	3
86	9
87	17
88	23
89	223
90	122
91	999
92	106
93	14
94	5
95	3
96	3
97	4
98	2
99	1
100	2
101	5
102	16
103	37
104	178
105	61
106	40
107	32
108	4
109	2
110	2
111	3
112	1
113	1
114	4
115	17
116	16
117	37
118	96
119	128
120	34
121	8
122	4
123	1
124	1
125	1
126	3
127	4
128	5
129	4
130	10
131	14
132	130
133	52
134	31
135	12
136	10
137	2
138	1
139	6
140	5
141	5
142	2
143	9
144	20
145	10
146	22
147	60
148	119
149	21
150	9
151	6
152	14
153	8
154	9
155	3
156	1
157	1
158	6
159	14
160	16
161	20
162	10
163	20
164	11
165	28
166	15
167	9
168	6
169	3
170	2
171	1
172	10
173	14
174	25
175	184
176	59
177	16
178	29
179	16
180	22
181	9
182	4
183	2
184	1
185	2
186	1
187	2
188	11
189	9
190	13
191	15
192	19
193	29
194	52
195	14
196	6
197	3
198	3
199	1
200	0
201	4
202	7
203	6
204	15
205	13
206	12
207	15
208	15
209	10
210	4
211	2
212	1
215	1
216	1
217	2
218	114
219	36
220	15
221	52
222	70
223	23
224	9
225	7
226	3
231	1
232	6
233	8
234	8
235	9
236	16
237	11
238	5
239	2
240	1
247	1
248	13
249	37
250	116
251	87
252	25
253	6
254	1
255	0
261	6
262	7
263	10
264	5
265	11
266	6
267	4
276	4
277	16
278	139
279	144
280	29
281	10
282	3
283	9
284	2
291	6
292	3
293	7
294	3
295	4
296	157
297	31
298	5
308	2
309	152
310	32
311	12
312	2
324	11
326	408
327	83
328	12
329	1
