Mass Spectrum: Benzoic acid, 4-[2-(acetyloxy)-1-propenyl]-2-hydroxy-6-methyl-3-nitro-, methyl ester
Formula: C14H15NO7
CAS: 89586-49-2
Molecular weight: 309
m/z	intensity
26	2
27	19
28	7
29	18
30	3
31	6
38	5
39	48
40	8
41	45
42	15
43	999
44	36
45	24
50	12
51	40
52	23
53	27
54	8
55	39
56	15
57	51
58	4
59	25
60	20
61	7
62	9
63	42
64	28
65	71
66	23
67	70
68	14
69	47
70	14
71	29
72	4
73	18
74	8
75	11
76	20
77	66
78	37
79	28
80	15
81	26
82	12
83	23
84	10
85	17
87	8
88	6
89	48
90	27
91	99
92	40
93	20
94	7
95	13
96	10
97	18
98	9
99	6
101	7
102	10
103	24
104	28
105	24
106	18
107	44
108	15
109	11
110	6
111	11
112	6
113	6
114	4
115	14
116	7
117	13
118	19
119	205
120	68
121	47
122	7
123	7
124	5
125	6
126	4
127	4
129	9
130	7
131	12
132	14
133	26
134	48
135	13
136	11
137	13
138	4
139	3
141	4
143	3
144	4
145	16
146	147
147	471
148	182
149	80
150	14
151	5
158	4
159	13
160	11
161	14
162	22
163	11
164	11
165	41
166	6
167	5
172	3
173	7
174	21
175	414
176	273
177	45
178	14
179	8
185	3
186	4
187	10
188	36
189	32
190	20
191	9
192	202
193	550
194	62
195	8
200	3
201	4
202	6
203	6
204	4
205	12
206	9
207	84
208	56
209	8
217	91
218	39
219	10
220	5
221	7
223	4
224	46
225	55
226	7
232	12
233	3
234	16
235	59
236	48
237	9
249	17
250	6
256	3
266	6
267	6
268	4
277	64
278	45
279	8
309	11
310	2
