Mass Spectrum: Benzoic acid, 2-hydroxy-6-methyl-3-nitro-4-(2-oxopropyl)-, methyl ester
Formula: C12H13NO6
CAS: 89586-50-5
Molecular weight: 267
m/z	intensity
27	16
28	13
29	9
30	7
31	6
38	5
39	53
40	7
41	24
42	8
43	999
45	22
46	8
51	11
52	42
53	22
54	53
55	6
56	14
57	19
59	23
62	6
63	34
64	25
65	97
66	28
67	73
68	8
69	10
71	10
75	9
76	14
77	64
78	45
79	23
80	18
81	10
83	7
85	5
89	43
90	30
91	70
92	40
93	15
94	7
97	6
103	12
104	31
105	24
106	19
107	15
108	26
109	7
118	13
119	73
120	86
121	41
122	9
132	5
133	21
134	38
135	12
136	13
146	43
147	69
148	59
149	29
150	25
161	11
162	6
163	17
164	10
165	14
175	16
176	613
177	79
178	25
179	5
180	4
189	40
190	8
192	20
193	186
194	27
207	25
208	291
209	31
219	10
221	90
222	12
225	34
235	28
236	59
237	8
267	32
268	6
