Mass Spectrum: 3-Acetoxy-5-methyl-4-nitro-phthalic acid, dimethyl ester
Formula: C13H13NO8
CAS: 89586-28-7
Molecular weight: 311
m/z	intensity
27	16
28	29
29	12
30	27
31	6
37	3
38	6
39	46
40	4
41	22
42	19
43	999
44	37
45	14
50	40
51	62
52	20
53	25
54	3
55	15
56	6
57	14
59	79
60	7
61	7
62	12
63	28
64	27
65	38
66	15
67	32
68	6
69	21
70	4
71	8
73	4
74	14
75	24
76	44
77	93
78	30
79	19
80	15
81	11
82	4
83	12
84	3
85	4
89	11
90	12
91	29
92	42
93	23
94	6
95	12
96	7
97	5
103	12
104	39
105	41
106	23
107	30
108	5
109	3
117	17
118	21
119	9
120	24
121	13
122	7
123	13
124	10
131	6
132	24
133	37
134	26
135	18
136	10
137	4
146	18
148	19
149	25
150	11
151	38
152	5
159	24
160	21
161	40
162	9
164	7
165	3
176	4
177	15
178	9
179	565
180	58
181	8
188	9
189	4
190	3
191	7
192	55
193	7
207	90
208	21
209	4
220	10
221	42
222	6
236	3
237	896
238	428
239	58
240	7
252	3
269	394
270	53
271	6
280	6
311	8
