Mass Spectrum: [(Phenylthio)formamido]sulfur pentafluoride
Formula: C7H6F5NOS2
CAS: 89590-17-0
Molecular weight: 279
m/z	intensity
39	119
45	47
47	114
50	60
51	95
65	214
66	214
69	95
70	38
77	76
84	109
89	90
108	72
109	405
110	999
127	226
137	72
150	47
169	24
170	24
279	24
