Mass Spectrum: [(Methoxycarbonyl)amino]sulphur pentafluoride
Formula: C2H4F5NO2S
CAS: 89590-14-7
Molecular weight: 201
m/z	intensity
29	172
30	69
31	534
43	86
44	189
47	147
51	15
59	999
70	69
89	362
91	17
104	155
105	34
118	138
127	819
129	34
139	43
150	207
156	147
170	69
201	52
