Mass Spectrum: Imidazole, 1-methyl-5-dimethylamino-4-nitro-
Formula: C6H10N4O2
CAS: 89599-17-7
Molecular weight: 170
m/z	intensity
33	2
35	31
36	66
38	65
39	45
40	88
42	999
44	225
45	77
46	68
47	0
48	0
51	41
52	55
53	78
54	70
55	52
56	62
57	34
58	16
60	2
62	1
63	1
64	6
65	17
66	42
67	136
68	51
69	146
70	45
71	73
72	5
73	2
74	1
76	5
77	12
79	26
80	22
81	60
82	125
83	84
84	109
85	77
86	3
88	0
89	0
90	0
91	1
92	1
94	36
95	35
96	38
97	37
98	25
99	11
100	3
101	0
102	0
103	1
104	1
105	1
106	2
108	52
109	141
110	29
111	23
112	3
113	0
114	0
118	3
119	1
121	19
122	39
123	131
124	125
125	235
126	13
127	1
128	0
129	0
131	0
132	0
133	0
134	0
135	4
137	10
138	2
139	4
141	87
142	3
143	0
149	1
150	3
151	1
153	34
154	1
161	0
162	0
168	1
170	154
171	10
172	0
