Mass Spectrum: Benzene, 2,4-dinitro-1-(phenylsulfonyl)-
Formula: C12H8N2O6S
CAS: 896-80-0
Molecular weight: 308
m/z	intensity
28	164
29	18
30	149
38	13
39	75
41	16
42	11
43	23
44	46
45	33
46	13
48	15
50	42
51	236
52	30
53	26
55	14
57	13
60	11
62	19
63	59
64	50
65	270
66	23
73	11
74	33
75	110
76	42
77	999
78	92
79	23
91	14
92	28
93	523
94	50
95	18
97	42
125	78
126	26
127	14
139	38
140	19
141	110
142	23
150	33
151	60
152	57
153	23
154	19
166	11
167	19
168	23
169	19
170	19
181	23
182	11
213	19
214	14
215	69
216	19
225	14
226	26
227	150
228	24
278	21
308	15
