Mass Spectrum: N-p-Toluyl-N'-cyclohexylurea
Formula: C14H20N2O
CAS: 89609-46-1
Molecular weight: 232
m/z	intensity
12	1
14	0
15	3
16	7
17	41
18	124
19	0
26	2
27	22
28	37
29	25
30	17
31	1
32	2
36	1
37	0
38	2
39	29
40	5
41	66
42	16
43	53
44	20
45	2
50	3
51	12
52	11
53	16
54	10
55	60
56	47
57	33
58	2
59	0
60	1
61	1
62	1
63	5
64	2
65	19
66	4
67	8
68	3
69	10
70	9
71	21
72	1
73	1
74	0
75	1
76	2
77	42
78	17
79	36
80	7
81	9
82	7
83	16
84	4
85	14
86	2
87	1
89	4
90	2
91	23
92	2
93	3
94	1
95	2
96	2
97	8
98	12
99	8
100	1
101	1
102	1
103	1
104	12
105	8
106	248
107	999
108	85
109	4
110	1
111	4
112	5
113	6
114	0
115	1
116	0
117	1
118	1
119	2
120	3
121	1
122	0
123	1
124	1
125	3
126	2
127	5
128	2
129	1
130	1
131	2
132	12
133	13
134	4
135	1
136	0
137	0
138	0
139	1
140	2
141	4
142	1
143	0
144	1
145	0
146	4
147	1
148	0
149	11
150	5
151	1
152	1
153	1
154	1
155	2
156	0
157	1
158	0
161	0
167	1
168	1
169	2
170	1
171	4
172	1
173	0
174	0
175	0
182	1
183	2
184	0
185	1
188	0
189	0
195	0
196	1
197	1
198	0
199	0
200	0
201	0
209	0
210	1
211	1
217	0
223	0
224	0
225	0
228	0
230	0
232	49
233	8
234	0
