Mass Spectrum: S-Methyl(pentafluorosulfanyl)thiocarbamate
Formula: C2H4F5NOS2
CAS: 89606-92-8
Molecular weight: 217
m/z	intensity
45	177
46	322
47	999
48	855
70	105
75	229
89	354
127	540
150	312
169	62
197	47
217	57
