Mass Spectrum: Thiocyanic acid, 1,1,3,3-tetramethylbutyl ester
Formula: C9H17NS
CAS: 89601-36-5
Molecular weight: 171
m/z	intensity
40	26
41	521
42	31
43	40
44	6
45	8
46	6
50	14
51	23
52	9
53	38
54	8
55	203
56	110
57	999
58	62
59	30
60	11
61	4
62	3
63	8
64	3
65	13
66	5
67	18
68	5
69	62
70	11
71	21
72	8
73	3
74	8
75	5
77	10
78	5
79	11
80	5
81	13
82	5
83	22
84	13
85	5
86	5
87	5
88	5
89	5
90	3
91	6
93	5
94	5
95	5
96	8
97	128
98	16
99	5
100	150
101	13
102	11
104	3
106	3
107	6
108	5
109	9
110	9
111	23
112	113
113	189
114	3
115	6
116	3
156	4
