Mass Spectrum: 1-Methyl-2-pyrrolidone-4-carboxamide
Formula: C6H10N2O2
CAS: 89677-16-7
Molecular weight: 142
m/z	intensity
41	867
42	567
43	220
44	999
45	54
46	26
49	4
50	4
51	11
52	32
53	46
54	80
55	389
56	134
57	24
58	100
59	15
60	10
63	1
64	3
65	3
66	14
67	15
68	285
69	268
70	819
71	187
72	97
73	9
77	2
78	6
80	8
81	5
82	45
83	198
84	188
85	53
86	63
87	4
94	0
95	5
96	56
97	474
98	847
99	90
100	101
101	6
108	0
109	1
111	3
112	26
113	13
114	195
115	12
124	26
125	18
126	9
127	0
141	10
142	242
143	18
144	0
