Mass Spectrum: 1,2-Cyclopentanedicarboxylic acid, 4-(1-methylethylidene)-, diethyl ester, trans-
Formula: C14H22O4
CAS: 89683-68-1
Molecular weight: 254
m/z	intensity
26	7
27	87
28	3
29	240
30	6
31	6
38	2
39	49
40	13
41	75
42	5
43	30
44	2
45	8
46	0
47	3
50	2
51	12
52	7
53	27
54	4
55	23
56	1
57	3
59	9
60	1
62	1
63	6
64	3
65	40
66	16
67	35
68	5
69	6
70	1
71	2
73	3
75	1
76	0
77	59
78	13
79	57
80	6
81	13
82	2
83	3
84	1
85	1
86	1
87	1
89	3
90	2
91	144
92	27
93	84
94	7
95	7
96	1
97	1
99	6
100	0
101	0
102	0
103	5
104	2
105	46
106	118
107	999
108	103
109	13
110	3
111	5
112	0
114	0
117	1
118	0
119	5
120	0
121	4
122	0
123	3
124	0
125	2
127	6
128	1
129	1
130	0
131	1
132	0
133	19
134	10
135	28
136	4
137	14
138	1
139	2
145	0
149	0
150	0
151	30
152	13
153	4
157	0
159	1
161	0
162	4
163	1
165	10
166	1
167	0
173	3
174	0
178	1
179	12
180	439
181	69
182	7
183	0
208	6
209	80
210	11
211	1
254	74
255	12
256	1
