Mass Spectrum: 2,2'-Isopropylidenebis(tetrahydrofuran)
Formula: C11H20O2
CAS: 89686-69-1
Molecular weight: 184
m/z	intensity
15	4
26	2
27	50
28	11
29	27
31	6
38	1
39	35
40	8
41	122
42	39
43	348
44	12
45	11
50	1
51	2
52	1
53	12
54	6
55	44
56	17
57	12
58	2
59	3
65	3
66	1
67	15
68	18
69	42
70	101
71	999
72	52
73	5
77	3
79	5
80	1
81	89
82	9
83	20
84	6
85	5
86	3
87	24
88	1
91	1
93	2
94	4
95	12
96	390
97	71
98	11
99	2
107	1
109	2
110	2
111	14
112	39
113	39
114	15
115	8
123	1
125	62
126	8
127	1
128	1
139	6
140	1
141	1
156	6
167	1
169	6
182	3
183	1
184	16
185	2
