Mass Spectrum: (4-Methyl-cyclohex-3-enyl)-methanol
Formula: C8H14O
CAS: 89690-46-0
Molecular weight: 126
m/z	intensity
26	5
27	91
28	15
29	65
30	2
31	56
38	8
39	143
40	31
41	152
42	21
43	32
44	3
50	12
51	42
52	21
53	118
54	24
55	160
56	16
57	40
58	3
62	3
63	14
64	3
65	47
66	32
67	289
68	124
69	24
70	22
71	10
75	3
77	183
78	37
79	231
80	126
81	49
82	11
83	15
84	4
91	152
92	20
93	999
94	86
95	299
96	26
97	11
105	10
106	2
107	56
108	308
109	31
111	3
126	158
127	13
