Mass Spectrum: 4-Heptenoic acid, 3,3-dimethyl-6-oxo-, methyl ester
Formula: C10H16O3
CAS: 89722-21-4
Molecular weight: 184
m/z	intensity
26	12
27	102
28	21
29	75
30	6
31	19
38	13
39	188
40	50
41	325
42	48
43	999
44	33
45	45
50	16
51	44
52	23
53	116
54	23
55	202
56	34
57	27
58	6
59	161
61	7
63	13
65	52
66	29
67	228
68	44
69	81
70	12
71	32
73	43
74	34
75	7
77	47
78	11
79	48
80	13
81	380
82	118
83	155
84	17
85	73
86	8
87	7
91	39
92	9
93	39
94	10
95	270
96	62
97	21
98	14
99	192
100	16
101	21
105	11
106	12
107	31
108	13
109	554
110	802
111	690
112	74
113	18
114	9
115	6
123	29
124	51
125	67
126	13
127	71
128	9
131	5
133	5
137	144
138	15
139	6
140	5
141	170
142	40
143	5
148	10
151	88
152	60
153	9
165	16
169	110
170	11
184	95
185	11
