Mass Spectrum: Dichloroacetic acid, cyclopentyl ester
Formula: C7H10Cl2O2
CAS: 89728-58-5
Molecular weight: 196
m/z	intensity
26	8
27	53
28	13
29	58
30	1
31	3
35	5
36	26
37	2
38	8
39	94
40	20
41	345
42	27
43	24
44	24
45	3
47	8
48	28
49	7
50	9
51	7
52	5
53	29
54	4
55	21
56	4
57	51
58	18
62	2
63	3
65	11
66	9
67	152
68	143
69	999
70	54
71	4
75	2
76	67
77	4
78	21
79	9
82	3
83	148
84	6
85	95
86	59
87	14
91	10
93	4
94	2
105	3
107	2
108	3
110	11
111	13
112	8
113	8
114	2
115	6
116	2
117	13
118	1
122	2
125	8
126	3
128	2
129	1
139	11
141	7
143	1
152	2
154	5
155	2
156	3
157	1
161	14
162	1
163	5
167	8
169	6
