Mass Spectrum: Carbonic acid, di(2-naphthyl) ester
Formula: C21H14O3
CAS: 89784-86-1
Molecular weight: 314
m/z	intensity
36	8
37	1
38	11
39	68
40	27
41	25
42	8
43	23
44	45
45	14
50	37
51	56
52	9
53	5
54	1
55	15
56	9
57	19
58	13
59	4
60	3
62	58
63	145
64	27
65	71
66	5
67	2
69	8
70	4
71	7
72	7
74	45
75	66
76	41
77	128
78	9
79	3
80	2
81	4
82	3
83	5
84	3
85	9
86	39
87	35
88	48
89	129
90	11
91	4
95	1
97	3
98	8
99	8
100	17
101	71
102	9
105	1
107	1
109	1
110	2
111	5
113	67
115	999
116	95
117	5
121	3
123	3
124	3
125	18
126	209
127	793
128	85
129	5
135	1
141	2
143	79
144	294
145	31
149	9
155	1
157	43
163	1
164	1
165	16
166	2
189	1
202	3
213	1
214	3
215	44
216	9
226	23
227	15
228	21
229	18
230	1
237	4
239	91
240	78
241	475
242	296
243	47
244	5
250	5
251	12
252	16
253	21
254	3
255	6
268	29
269	108
270	284
271	58
272	7
314	540
315	113
316	15
