Mass Spectrum: Octanoic acid, 8-[[(4-methylphenyl)sulfonyl]oxy]-, methyl ester
Formula: C16H24O5S
CAS: 89790-30-7
Molecular weight: 328
m/z	intensity
25	4
26	31
27	121
28	194
29	212
30	15
31	157
33	2
39	39
40	10
41	97
42	64
43	999
44	106
45	250
46	22
51	4
52	2
53	14
54	27
55	168
56	33
57	51
58	10
59	52
60	15
61	157
62	6
63	15
64	4
65	49
66	6
67	36
68	54
69	54
70	108
71	33
72	18
73	66
74	165
75	17
76	3
77	19
78	7
79	19
80	11
81	36
82	63
83	134
90	20
91	196
92	45
93	8
94	5
95	29
96	57
97	83
98	19
99	7
100	4
101	16
102	2
103	5
104	4
105	50
106	13
107	39
108	19
109	8
110	3
111	14
112	6
113	14
114	15
115	14
116	2
117	3
118	3
119	22
120	42
121	22
122	3
123	9
124	61
125	151
126	18
127	10
128	16
129	7
131	2
133	2
134	3
135	2
139	6
140	3
141	46
142	13
143	5
148	3
149	7
153	3
154	11
155	68
156	10
157	40
158	5
164	3
167	6
168	2
169	3
172	23
173	35
174	4
181	3
186	2
232	20
233	4
296	108
297	38
298	11
299	3
328	20
329	3
330	2
