Mass Spectrum: 1,3,4-Oxadiazole, 2-methylthio-5-(2-thienyl)-
Formula: C7H6N2OS2
CAS: 89795-53-9
Molecular weight: 198
m/z	intensity
33	23
34	6
36	7
37	30
38	53
39	327
40	69
41	19
42	8
43	30
44	77
45	238
46	71
47	110
48	11
49	18
50	31
51	25
52	9
53	14
54	3
55	16
56	14
57	90
58	93
59	18
60	16
61	33
62	6
63	8
64	21
65	9
66	4
69	261
70	47
71	24
72	10
73	11
75	212
76	10
77	13
78	2
79	9
81	31
82	47
83	122
84	16
85	16
86	2
87	1
88	5
89	15
91	5
92	6
93	27
94	10
95	64
96	30
97	15
98	7
99	18
100	2
105	1
106	1
107	9
109	270
111	999
112	60
113	43
114	3
115	2
119	1
121	1
123	143
124	16
125	15
127	498
128	37
129	39
130	3
131	2
135	6
141	2
149	12
151	443
152	37
153	20
154	2
155	4
176	2
187	0
195	8
198	870
199	78
200	71
201	7
202	0
