Mass Spectrum: 4-Pyridinol, 3-chloro-2,6-dimethyl-5-nitro-
Formula: C7H7ClN2O3
CAS: 89793-14-6
Molecular weight: 202
m/z	intensity
42	999
43	283
44	6
45	73
46	28
47	29
49	111
50	207
51	610
52	273
53	273
54	309
55	74
56	3
57	5
58	20
60	10
61	99
62	72
63	122
64	18
65	285
66	154
67	325
68	38
69	72
70	132
72	29
73	139
74	45
75	79
76	56
77	85
78	84
79	197
80	197
81	94
82	78
84	3
85	93
86	86
87	142
88	88
89	67
90	27
92	72
93	60
94	25
95	4
96	19
97	9
99	11
101	616
103	379
104	20
105	45
106	4
108	21
109	3
111	4
112	8
113	26
114	27
115	29
116	26
117	13
120	28
121	19
124	3
126	3
127	55
128	43
130	459
132	207
133	13
136	20
140	3
142	56
143	36
144	39
145	4
149	3
151	18
155	96
156	144
158	309
159	12
160	82
185	587
187	200
188	15
202	676
203	66
204	224
205	45
