Mass Spectrum: 4-Aminobenzo-1,2,3-triazine
Formula: C7H6N4
CAS: 89795-80-2
Molecular weight: 146
m/z	intensity
41	127
42	19
43	17
44	18
46	30
49	39
50	432
51	132
52	166
53	26
54	15
59	46
60	6
61	39
62	66
63	195
64	344
65	116
66	38
67	16
73	17
74	86
75	127
76	364
77	52
78	24
79	7
84	8
86	10
87	9
88	12
89	13
90	129
91	999
92	73
99	7
102	82
103	8
117	96
118	829
119	91
130	34
145	3
146	929
147	78
148	5
