Mass Spectrum: Dithiocarbonic acid, S-(2,4-dimethylphenyl)-O-ethyl diester
Formula: C11H14OS2
CAS: 89816-81-9
Molecular weight: 226
m/z	intensity
41	23
42	4
43	16
45	382
46	8
47	32
48	2
49	10
50	15
51	57
52	20
53	48
54	2
55	5
56	0
57	6
58	9
59	45
60	26
61	82
62	17
63	45
64	40
65	106
66	125
67	11
68	12
69	31
70	11
71	20
72	3
73	3
74	5
75	15
76	49
77	255
78	90
79	93
80	8
81	3
82	7
83	8
84	12
85	6
86	7
87	4
89	331
90	28
91	342
92	53
93	233
94	179
95	36
96	22
97	52
98	10
99	4
100	1
101	4
102	23
103	110
104	74
105	999
106	271
107	58
108	15
109	24
110	12
111	9
112	3
113	1
114	0
115	5
116	7
117	14
118	28
119	73
120	98
121	138
122	76
123	51
124	10
125	22
126	9
127	5
128	3
129	2
130	15
131	10
132	44
133	141
134	119
135	133
136	210
137	732
138	624
139	104
140	32
141	6
142	1
143	1
144	1
145	1
146	23
147	130
148	211
149	72
150	22
151	256
152	32
153	80
154	42
155	18
156	6
157	3
158	1
159	1
160	6
161	4
162	4
163	8
164	15
165	80
166	889
167	137
168	61
169	43
170	75
171	12
172	7
173	1
174	2
175	8
176	45
177	11
178	4
179	6
180	11
181	69
182	20
183	19
184	4
185	14
186	4
187	3
188	1
189	1
190	1
191	2
192	11
193	33
194	11
195	7
196	3
198	425
199	58
200	41
201	8
202	4
203	2
204	0
205	0
206	1
225	3
226	400
227	55
228	21
229	0
