Mass Spectrum: 3-Nitro-N,N-dipropylbenzenesulfonamide
Formula: C12H18N2O4S
CAS: 89840-76-6
Molecular weight: 286
m/z	intensity
34	17
36	9
37	11
38	23
39	185
40	278
41	658
42	619
43	999
46	33
48	9
50	247
51	91
52	22
53	17
54	33
55	44
56	83
57	37
58	59
59	6
60	4
61	9
63	34
64	86
65	38
66	10
67	10
68	20
69	25
70	206
71	26
72	49
74	56
75	168
76	317
77	58
78	21
79	15
80	9
81	11
82	14
83	11
84	12
85	6
87	4
89	3
90	9
92	156
93	19
95	20
96	11
97	7
98	7
99	5
100	10
101	4
103	4
104	14
105	16
106	46
107	8
108	7
109	4
111	4
112	6
115	4
117	4
118	4
120	8
121	8
122	325
123	26
124	10
127	6
128	5
134	3
140	9
141	3
142	3
144	4
149	9
156	14
157	4
169	3
170	20
171	6
186	406
187	33
188	22
199	5
211	13
212	5
213	8
215	246
216	19
217	11
227	15
229	10
241	11
243	4
253	4
254	8
255	20
257	784
258	93
259	42
260	4
286	38
287	5
