Mass Spectrum: Cyclopentylcarbonyl-urea
Formula: C7H12N2O2
CAS: 89852-04-0
Molecular weight: 156
m/z	intensity
43	69
44	302
59	23
60	115
69	999
87	68
96	138
97	255
113	45
156	69
