Mass Spectrum: Oxazolidine, 2-ethyl-2,3-dimethyl-
Formula: C7H15NO
CAS: 89855-05-0
Molecular weight: 129
m/z	intensity
15	34
26	10
27	56
29	88
30	61
39	23
41	42
42	107
43	158
44	78
53	11
54	21
55	41
56	133
57	104
58	760
59	29
70	16
71	25
84	50
85	14
86	11
98	47
99	40
100	999
101	62
114	196
115	14
129	14
130	1
