Mass Spectrum: 2(1H)-Pyrimidinone, 4-[(2-carboxyethyl)amino]-
Formula: C7H9N3O3
CAS: 89853-89-4
Molecular weight: 183
m/z	intensity
51	20
52	80
53	60
54	40
55	590
56	90
57	30
65	20
66	90
67	240
68	230
69	230
70	70
71	40
72	700
73	30
81	50
82	40
83	110
84	20
93	20
94	90
95	390
96	40
108	70
109	170
110	60
111	999
112	100
121	20
122	20
123	20
124	60
136	250
137	300
138	130
139	20
164	100
165	460
166	50
183	70
184	6
