Mass Spectrum: 2(5H)-Furanone, 4-(hydroxymethyl)-, TBDMS derivative
Formula: C11H20O3Si
CAS: 89861-21-2
Molecular weight: 228
m/z	intensity
20	0
25	0
26	4
27	30
28	19
29	74
30	3
31	12
32	2
33	1
37	1
38	5
39	97
40	14
41	81
42	6
43	48
44	9
45	77
46	5
47	55
48	3
49	3
50	2
51	3
52	4
53	14
54	2
55	999
56	48
57	55
58	26
59	145
60	17
61	34
62	2
63	1
64	3
65	1
66	3
67	41
68	18
69	16
70	3
71	30
72	4
73	129
74	15
75	572
76	41
77	27
78	4
79	2
80	0
81	3
82	2
83	31
84	4
85	31
86	3
87	8
88	2
89	8
90	1
91	2
92	2
93	2
94	0
95	2
96	5
97	26
98	14
99	27
100	3
101	13
102	1
103	6
104	0
105	2
106	0
107	1
108	0
109	12
110	2
111	23
112	12
113	303
114	32
115	20
116	2
117	1
118	1
119	6
120	5
121	3
122	1
123	0
124	0
125	7
126	3
127	28
128	4
129	9
130	1
131	2
132	0
133	0
135	2
136	0
139	1
140	0
141	24
142	5
143	192
144	22
145	8
146	0
149	0
153	1
155	3
157	1
166	0
167	0
169	1
170	3
171	390
172	66
173	28
174	3
175	0
185	1
199	0
213	18
214	2
215	0
228	20
229	3
230	1
