Mass Spectrum: 6,9,17,20,25,28-Hexaoxa-1,3,12,14-tetraazabicyclo[12.8.8]triacontane-2,13-dithione
Formula: C20H38N4O6S2
CAS: 89863-11-6
Molecular weight: 494
m/z	intensity
53	18
54	85
55	109
56	357
57	214
58	157
59	129
60	242
61	42
62	17
67	21
68	37
69	92
70	228
71	89
72	135
73	67
74	301
75	62
81	22
82	17
83	61
84	48
85	457
86	999
87	214
88	155
89	35
94	28
95	25
96	22
97	28
98	47
99	25
100	242
101	49
102	97
103	52
104	28
105	14
106	25
111	17
112	28
113	45
114	74
115	54
116	79
117	25
118	199
119	27
120	14
126	18
127	47
128	68
129	171
130	185
131	65
132	428
133	37
141	27
142	31
143	34
144	51
145	45
146	54
147	114
148	19
149	9
150	11
154	24
155	35
156	49
157	37
158	44
159	22
160	61
161	35
170	18
171	29
172	47
173	78
174	44
175	21
176	21
185	14
186	19
187	47
188	24
189	32
190	31
191	49
192	15
194	65
199	19
200	12
201	22
202	9
203	17
204	19
205	14
206	12
209	12
215	28
216	29
217	51
218	14
219	25
220	9
229	9
230	7
231	17
232	19
233	17
234	21
235	14
242	9
243	21
244	8
245	11
246	14
247	28
248	11
259	14
260	14
261	37
262	15
263	24
274	9
275	9
276	28
277	14
278	14
279	15
286	7
287	9
288	8
289	7
300	7
302	11
303	11
304	14
305	15
320	15
331	7
346	9
347	7
348	22
349	7
362	8
363	9
364	9
373	11
405	9
406	8
407	15
419	11
431	12
432	9
433	32
434	15
435	7
449	15
451	21
461	15
493	24
494	118
495	37
496	21
497	8
