Mass Spectrum: 3,12-Dimethyl-6,9,17,20,25,28-hexaoxa-1,3,12,14-tetraazabicyclo[12.8.8]triacontane-2,13-dione
Formula: C22H42N4O8
CAS: 89863-14-9
Molecular weight: 490
m/z	intensity
55	74
56	999
57	451
58	499
59	209
69	83
70	516
71	141
72	187
73	119
84	99
85	64
86	354
87	148
88	80
89	161
99	67
100	483
101	225
102	387
112	64
113	258
114	387
115	106
125	54
126	61
127	112
128	116
130	70
139	41
140	48
141	148
142	48
143	48
144	45
146	58
157	135
158	87
169	28
170	22
171	80
172	38
184	19
185	54
186	22
187	32
189	38
197	19
199	32
201	51
202	22
213	38
214	19
215	51
227	16
229	19
231	19
233	19
243	9
244	22
245	16
258	12
259	25
270	28
284	9
286	6
288	16
289	9
302	12
314	58
334	9
344	16
346	9
415	48
416	9
429	19
489	9
490	51
491	12
