Mass Spectrum: 3,9-Dimethyl-6,14,17,22,25-pentaoxa-1,3,9,11-tetraazabicyclo[9.8.8]-heptaoctacosan-2,10-dione
Formula: C20H38N4O7
CAS: 89863-13-8
Molecular weight: 446
m/z	intensity
54	53
55	125
56	999
57	375
58	438
59	72
61	125
68	50
69	169
70	406
71	147
72	175
73	53
74	56
76	47
82	72
83	88
84	113
85	97
86	375
87	97
88	63
93	13
95	44
96	41
97	38
98	109
99	128
100	625
101	175
102	138
111	50
112	125
113	688
114	750
115	134
116	78
118	84
125	156
126	197
127	375
128	281
129	122
130	113
131	34
132	56
137	34
138	34
139	147
140	72
141	297
142	113
143	125
144	119
145	113
146	31
149	11
152	78
153	94
154	72
155	184
156	91
157	163
158	144
159	38
160	26
169	84
170	84
171	194
172	50
173	41
174	17
175	22
176	34
182	25
183	47
184	38
185	75
186	66
187	106
188	34
189	138
196	25
197	27
198	16
199	91
200	41
201	122
202	50
213	81
214	50
215	109
216	31
217	34
218	19
219	19
226	23
227	31
228	16
229	34
230	20
231	50
232	13
233	56
234	19
235	20
236	21
237	19
238	78
239	47
240	13
241	19
242	19
243	30
244	28
245	11
270	234
271	47
277	23
282	16
283	13
284	31
285	13
286	15
287	14
288	13
289	28
290	9
300	19
301	8
302	25
303	17
314	19
315	20
316	8
326	6
327	8
328	17
329	6
330	9
341	8
343	8
344	31
345	16
346	53
347	9
348	13
349	12
350	12
360	8
371	50
372	17
384	13
385	16
390	15
391	5
401	13
402	4
403	7
413	1
415	3
416	3
417	2
418	2
428	3
429	2
431	8
432	3
445	18
446	59
447	19
448	5
