Mass Spectrum: 7,9-Dimethyl-1,4-dioxa-7,9-diazacycloundecane-8-thione
Formula: C9H18N2O2S
CAS: 8986-07-0
Molecular weight: 218
m/z	intensity
55	91
56	539
57	719
58	599
59	119
60	71
69	93
70	123
71	999
72	379
73	359
74	519
75	81
76	75
83	65
84	39
85	39
86	319
87	101
88	161
89	89
99	133
100	169
101	65
102	137
103	33
104	599
105	59
106	31
114	29
115	107
116	51
117	107
118	141
128	53
129	319
130	919
131	239
132	83
141	39
142	13
143	19
144	59
145	15
146	57
147	69
148	279
149	31
157	15
161	15
162	37
173	41
174	55
175	31
185	299
186	31
203	37
204	15
218	699
219	89
220	35
