Mass Spectrum: Diisopropyl (1-hydroxy-1-methylethyl)phosphonate
Formula: C9H21O4P
CAS: 89865-29-2
Molecular weight: 224
m/z	intensity
33	2
34	1
35	2
36	1
37	6
39	119
41	357
43	723
44	42
45	85
47	33
48	3
49	2
50	1
51	1
52	1
53	2
55	9
57	20
59	999
60	32
61	32
62	1
63	2
65	85
66	3
67	3
68	3
69	5
70	3
71	4
73	1
75	1
77	2
79	7
82	946
83	224
84	8
85	10
86	1
87	2
91	10
92	1
96	12
97	3
99	35
101	5
103	13
105	21
106	9
107	33
109	308
110	8
111	3
112	1
117	7
118	1
121	9
123	213
124	727
125	107
126	6
127	1
135	1
139	5
140	7
141	5
147	1
149	4
150	1
151	1
165	8
166	75
167	27
168	1
171	1
181	3
183	1
