Mass Spectrum: N-(1-Hydroxymethyl-2-methyl-propyl)-formamide
Formula: C6H13NO2
CAS: 89876-66-4
Molecular weight: 131
m/z	intensity
27	86
28	150
29	77
30	157
31	90
38	9
39	101
40	16
41	117
42	166
43	80
44	29
45	6
46	67
51	5
52	5
53	18
54	13
55	323
56	80
57	74
58	22
59	13
60	439
61	9
68	12
69	4
70	31
71	61
72	223
73	14
84	5
85	3
86	47
87	8
88	129
89	4
98	5
99	2
100	999
101	148
102	9
113	2
