Mass Spectrum: 2,4-Dinitro-4'-methyldiphenylsulfone
Formula: C13H10N2O6S
CAS: 899-02-5
Molecular weight: 322
m/z	intensity
28	190
29	81
30	157
31	13
39	147
41	99
42	34
43	219
44	210
45	142
48	97
50	24
51	118
52	47
53	92
55	15
60	42
61	52
62	11
63	124
64	177
65	312
66	111
67	99
69	11
70	47
73	18
75	109
76	28
77	337
78	201
79	361
80	131
89	63
90	172
91	724
92	292
93	43
94	20
95	51
97	23
106	45
107	999
108	353
109	52
111	68
115	97
116	13
121	11
122	20
123	38
124	11
125	52
127	25
128	23
129	18
139	366
140	61
141	34
150	15
151	45
152	102
153	111
154	34
155	351
156	38
157	15
163	61
164	138
165	403
166	122
167	123
168	45
169	27
179	20
180	41
181	147
182	41
183	57
184	45
185	47
194	11
195	111
196	38
197	36
198	15
199	27
200	32
201	32
202	34
211	41
212	34
213	75
214	11
215	41
226	13
227	118
228	18
229	34
230	13
241	416
242	61
243	92
292	97
293	15
322	305
323	50
324	17
