Mass Spectrum: Methyl 4-(4-bromophenyl)benzoate
Formula: C14H11BrO2
CAS: 89901-03-1
Molecular weight: 290
m/z	intensity
34	3
35	6
36	5
37	38
38	78
39	129
40	20
41	5
43	8
44	17
45	7
47	12
50	368
51	273
52	32
53	12
55	6
57	4
59	78
61	73
62	190
63	407
65	7
66	10
67	1
69	9
70	10
71	2
73	40
74	298
75	573
76	999
78	17
79	11
80	5
81	8
82	8
84	51
85	33
86	107
87	110
88	36
89	34
90	63
98	105
99	92
100	39
101	114
102	92
103	11
104	4
105	52
109	9
110	26
111	32
113	45
114	25
115	24
116	17
119	4
121	4
122	19
123	13
124	12
125	80
126	201
127	29
128	7
129	184
130	180
132	3
135	1
137	5
139	35
140	11
141	2
145	6
146	9
150	249
151	481
152	999
153	255
154	17
155	3
157	2
165	33
166	15
167	13
168	7
179	11
180	29
181	50
182	13
183	2
196	7
204	1
206	1
210	2
211	25
212	3
230	2
231	12
232	6
233	11
234	1
245	2
247	2
248	1
259	425
260	70
261	419
262	68
263	3
290	296
291	47
292	294
293	44
294	1
