Mass Spectrum: dl-3-Acetamido-perhydro-3-methyl-2-oxofuran
Formula: C7H11NO3
CAS: 89910-27-0
Molecular weight: 157
m/z	intensity
13	1
14	10
15	124
16	2
17	5
18	35
25	1
26	17
27	69
28	108
29	34
30	41
31	6
37	3
38	9
39	73
40	33
41	149
42	523
43	893
44	67
45	9
48	1
49	3
50	4
51	7
52	9
53	21
54	46
55	37
56	202
57	792
58	89
59	9
60	75
61	6
66	1
67	1
68	9
69	38
70	529
71	999
72	77
73	3
80	1
81	8
82	4
83	2
84	15
85	10
86	64
87	10
88	15
96	3
97	12
98	399
99	222
100	175
101	9
102	1
111	7
112	150
113	138
114	31
115	12
116	8
124	2
126	11
127	4
128	18
129	32
130	3
139	7
140	1
142	55
143	4
156	1
157	562
158	52
159	5
