Mass Spectrum: 4,6,12,14-Tetramethyl-1,9-dioxa-4,6,12,14-tetraazahexadecane-5,13-dione
Formula: C14H28N4O4
CAS: 89913-94-0
Molecular weight: 316
m/z	intensity
55	25
56	544
57	999
58	777
59	66
64	16
65	9
68	17
69	27
70	188
71	122
72	133
73	25
74	71
75	6
76	55
81	15
82	12
83	69
84	133
85	211
86	655
87	61
88	66
89	12
93	166
97	12
98	18
99	101
100	188
101	122
102	266
103	15
111	23
112	155
113	399
114	588
115	444
116	104
125	81
126	29
127	788
128	166
129	66
130	15
131	14
132	7
133	48
139	96
140	123
141	277
142	177
143	188
144	25
145	87
146	17
147	16
154	31
155	11
156	28
157	81
158	299
159	511
160	49
161	16
163	14
166	6
167	3
168	3
169	5
170	6
171	33
172	18
173	22
174	4
175	19
176	3
177	36
184	71
185	37
186	7
187	5
188	6
189	5
190	6
196	4
198	4
200	6
201	4
202	11
203	7
212	4
214	35
215	5
216	12
217	3
218	3
227	3
228	5
229	2
230	3
232	8
241	6
242	5
244	3
245	2
246	5
259	3
260	3
262	4
273	6
285	4
286	4
298	9
299	4
316	6
317	11
