Mass Spectrum: Dodecanoic acid, (4-dodecanoylaminobutyl)amide
Formula: C28H56N2O2
CAS: 89927-57-1
Molecular weight: 452
m/z	intensity
26	6
27	49
28	21
29	106
30	146
31	9
38	3
39	38
40	11
41	265
42	62
43	453
44	106
45	79
46	15
50	5
51	7
52	5
53	21
54	32
55	288
56	95
57	422
58	81
59	38
60	50
61	12
65	11
66	6
67	57
68	39
69	171
70	999
71	205
72	257
73	97
74	12
75	4
76	7
77	17
78	6
79	21
80	12
81	67
82	39
83	115
84	61
85	122
86	89
87	220
88	16
89	15
91	14
92	7
93	40
94	12
95	61
96	38
97	84
98	80
99	46
100	115
101	154
102	14
103	4
104	7
105	16
106	9
107	17
108	12
109	34
110	26
111	66
112	99
113	102
114	65
115	81
116	11
117	6
118	3
119	8
120	10
121	16
122	7
123	21
124	22
125	29
126	52
127	27
128	21
129	119
130	32
131	72
132	9
133	7
134	6
135	17
136	7
137	13
138	15
139	19
140	28
141	18
142	17
143	62
144	11
145	7
146	3
152	13
153	12
154	22
155	15
156	25
157	33
158	8
159	5
160	10
161	5
162	4
163	11
164	4
165	10
166	8
167	20
168	30
169	15
170	16
171	23
172	279
173	35
174	5
175	4
176	4
177	7
178	3
179	6
180	7
181	10
182	18
183	75
184	25
185	277
186	45
187	8
189	4
190	3
191	6
192	3
193	5
194	9
195	7
196	15
197	10
198	13
199	42
200	34
201	8
202	3
203	3
204	3
207	4
208	6
209	7
210	15
211	10
212	27
213	37
214	24
215	7
216	4
219	5
221	4
222	6
223	9
224	11
225	8
226	24
227	64
228	26
229	6
230	2
231	2
232	2
233	4
234	5
235	5
236	23
237	9
238	10
239	13
240	463
241	137
242	31
243	8
247	4
248	3
249	4
250	5
251	18
252	339
253	82
254	93
255	42
256	26
257	9
258	4
259	3
260	4
261	3
262	7
263	4
264	8
265	6
266	4
267	10
268	5
269	214
270	59
271	98
272	19
273	4
278	4
279	43
280	10
281	5
282	3
283	31
284	15
285	3
293	3
294	13
295	5
296	3
297	50
298	12
299	3
307	6
308	3
309	3
310	2
311	5
312	346
313	79
314	10
321	2
322	3
323	5
325	202
326	51
327	7
331	3
336	3
337	3
339	40
340	13
341	3
353	24
354	14
355	3
367	41
368	21
369	5
381	29
382	11
383	4
393	2
395	21
396	8
397	2
409	27
410	10
411	4
423	25
424	8
425	2
434	5
435	2
437	8
438	5
451	18
452	151
453	50
454	11
