Mass Spectrum: Molybdenum, chlorotris(.eta.3-2-propenyl)(trimethylphosphine)-
Formula: C12H24ClMoP
CAS: 89936-25-4
Molecular weight: 332
m/z	intensity
26	82
27	343
28	5
29	72
31	53
33	1
35	8
36	81
37	76
38	118
39	691
40	191
41	999
42	435
43	35
44	39
45	160
46	25
47	63
48	5
49	1
50	34
51	52
52	33
53	86
54	135
55	64
56	25
57	119
58	44
59	390
60	36
61	579
62	19
63	16
65	49
66	40
67	292
68	23
69	13
70	1
71	2
73	31
74	15
75	112
76	374
77	125
78	28
79	165
80	68
81	96
82	50
83	10
84	10
91	91
92	52
93	10
94	1
95	5
96	9
98	12
105	1
121	1
122	1
123	1
124	1
130	8
131	1
132	9
133	15
134	14
135	15
136	16
137	10
138	1
142	1
144	1
145	2
146	5
147	9
148	12
149	11
150	9
151	9
152	8
153	2
154	1
155	1
156	1
157	4
159	2
160	1
161	1
162	1
163	1
164	1
165	9
166	8
167	6
168	12
169	14
170	18
171	17
172	18
173	22
174	20
175	18
176	18
177	12
178	11
179	10
180	2
181	10
182	5
183	14
184	15
185	15
186	16
187	16
188	13
189	15
190	10
191	10
192	14
193	1
194	10
195	5
196	11
197	5
198	11
199	1
200	11
201	9
202	10
203	11
204	10
205	23
206	20
207	27
208	37
209	42
210	44
211	57
212	48
213	41
214	38
215	28
216	25
217	19
218	15
219	13
220	10
221	5
222	2
223	1
224	1
225	1
226	1
227	1
228	1
229	9
230	1
231	8
232	1
233	2
235	2
240	1
241	5
242	9
243	16
244	18
245	20
246	25
247	23
248	23
249	21
250	16
251	12
252	10
253	4
254	7
255	1
256	2
257	4
259	1
260	5
261	9
262	1
263	9
265	1
281	5
283	11
284	15
285	24
286	18
287	32
288	26
289	34
290	25
291	29
292	13
293	14
332	1
