Mass Spectrum: Ethyl 3-methyl-5-oxo-2-pyrazoline-1-carboxylate
Formula: C7H10N2O3
CAS: 89943-54-4
Molecular weight: 170
m/z	intensity
14	1
15	9
16	2
17	6
18	37
25	1
26	13
27	75
28	55
29	267
30	19
31	8
32	48
37	2
38	6
39	80
40	32
41	76
42	53
43	38
44	98
45	12
46	2
50	1
51	4
52	5
53	10
54	39
55	49
56	19
57	4
58	11
59	1
65	3
66	7
67	99
68	26
69	64
70	58
71	17
79	5
80	3
81	12
82	130
83	31
84	15
85	2
91	1
93	3
97	349
98	999
99	57
100	3
108	1
109	2
110	4
111	311
112	19
113	1
115	1
120	1
124	1
125	55
126	41
127	4
139	7
142	1
154	5
155	1
170	494
171	47
172	6
