Mass Spectrum: 2(5H)-Furanone, 5-(diethylamino)-3,4-dimethyl-
Formula: C10H17NO2
CAS: 89945-60-8
Molecular weight: 183
m/z	intensity
27	157
28	177
29	257
30	46
38	3
39	84
40	12
41	108
42	97
43	18
44	45
45	1
46	4
50	4
51	16
52	11
53	63
54	101
55	279
56	75
57	12
58	73
59	2
62	2
63	1
65	10
66	11
67	40
68	19
69	44
70	17
71	4
72	29
73	7
74	4
75	1
77	4
78	1
79	4
80	16
81	17
82	28
83	46
84	6
86	35
87	2
91	2
92	1
93	5
94	27
95	28
96	44
97	4
98	1
99	4
100	5
101	17
102	43
103	3
106	1
107	2
108	17
109	12
110	29
111	999
112	73
113	4
120	1
121	1
122	10
124	443
125	34
126	6
136	4
137	2
138	13
139	17
140	7
154	7
168	273
169	26
170	2
182	4
183	74
184	9
