Mass Spectrum: D:A-Friedoursan-3-one
Formula: C30H50O
CAS: 89950-00-5
Molecular weight: 426
m/z	intensity
105	130
107	320
108	130
109	420
110	110
111	110
119	150
120	80
121	340
122	180
123	999
124	180
125	190
133	130
134	80
135	190
136	160
137	230
147	110
148	80
149	160
150	50
151	120
159	40
161	140
163	150
173	50
175	100
177	110
179	180
187	40
189	100
191	110
193	90
201	40
203	80
204	100
205	220
206	150
207	150
215	40
217	80
218	170
219	110
220	120
221	80
229	50
231	100
232	90
233	80
234	50
245	60
246	110
247	80
248	80
257	30
259	40
274	90
275	50
286	90
287	60
302	60
303	40
341	320
342	110
383	30
384	20
411	60
412	30
426	450
427	150
428	30
