Mass Spectrum: 4-Propoxy-2-butanone
Formula: C7H14O2
CAS: 89975-71-3
Molecular weight: 130
m/z	intensity
13	1
14	6
15	50
16	1
17	5
18	7
19	3
25	1
26	13
27	104
28	41
29	35
30	6
31	95
32	1
37	3
38	4
39	36
40	7
41	95
42	43
43	999
44	31
45	24
46	2
47	2
50	1
51	1
53	2
54	2
55	81
56	5
57	50
58	37
59	40
60	16
61	34
62	1
69	4
70	36
71	229
72	191
73	82
74	6
75	2
83	1
84	1
85	2
86	1
87	78
88	7
89	49
90	3
97	1
101	25
102	4
103	2
115	24
116	2
129	2
130	2
