Mass Spectrum: Acrylothiamide, 3-morpholino-2-phenyl-N-(morpholinomethylene)-
Formula: C18H23N3O2S
CAS: 89984-38-3
Molecular weight: 345
m/z	intensity
14	3
15	36
16	4
17	5
18	14
19	9
26	16
27	89
28	300
29	144
30	76
31	24
32	3
34	2
35	1
37	2
38	3
39	29
40	12
41	163
42	155
43	93
44	78
45	155
46	10
47	9
50	14
51	35
52	16
53	11
54	200
55	83
56	104
57	79
58	57
59	26
60	30
61	10
62	8
63	24
64	9
65	16
66	6
67	10
68	19
69	43
70	66
71	38
72	54
73	12
74	15
75	16
76	30
77	91
78	21
79	8
80	6
81	10
82	8
83	7
84	17
85	29
86	248
87	27
88	999
89	105
90	23
91	68
92	14
93	9
94	5
95	5
96	5
97	5
98	35
99	22
100	184
101	37
102	87
103	95
104	27
105	12
106	4
107	4
108	5
109	3
110	3
111	4
112	6
113	26
114	24
115	161
116	60
117	35
118	9
119	3
120	4
121	26
122	7
123	5
124	6
125	12
126	6
127	31
128	88
129	55
130	71
131	33
132	26
133	24
134	33
135	14
136	4
137	4
138	1
139	3
140	20
141	28
142	31
143	42
144	21
145	34
146	16
147	73
148	23
149	10
150	3
151	7
152	4
153	18
154	27
155	76
156	53
157	127
158	26
159	34
160	36
161	18
162	17
163	5
164	2
165	2
166	4
167	15
168	37
169	44
170	48
171	24
172	48
173	42
174	66
175	45
176	13
177	3
178	2
179	3
180	5
181	10
182	12
183	22
184	10
185	13
186	41
187	32
188	23
189	13
190	3
191	1
192	3
193	3
194	3
195	54
196	18
197	18
198	138
199	44
200	63
201	52
202	21
203	8
204	5
205	1
206	1
207	2
208	2
209	3
210	4
211	4
212	7
213	22
214	44
215	30
216	13
217	3
218	1
219	1
220	1
221	1
222	1
223	3
224	2
225	140
226	29
227	42
228	14
229	6
230	16
231	16
232	22
233	5
234	2
235	0
236	2
237	0
238	1
239	1
240	3
241	4
242	3
243	2
244	1
245	2
246	5
247	5
248	4
249	1
250	0
251	0
252	0
253	1
254	4
255	1
256	1
257	5
258	4
259	42
260	42
261	8
262	3
263	0
266	0
267	0
268	1
269	1
270	0
271	0
272	0
273	1
274	1
275	0
276	0
280	0
281	0
282	2
283	0
284	0
285	0
286	2
287	2
288	0
289	0
291	0
292	0
297	0
298	0
299	0
300	1
301	0
302	0
310	1
312	543
313	119
314	14
315	1
316	0
317	0
319	0
320	1
321	1
322	1
323	0
324	0
326	3
327	0
328	0
329	1
330	0
340	0
341	0
342	0
343	0
345	138
346	29
347	10
348	1
349	0
