Mass Spectrum: Phenol, 2-methoxy-
Formula: C7H8O2
CAS: 90-05-1
Molecular weight: 124
m/z	intensity
14	2
15	13
25	2
26	17
27	55
29	21
30	2
31	6
36	1
37	16
38	36
39	89
40	7
41	16
42	7
43	5
48	1
49	12
50	76
51	109
52	124
53	220
54	23
55	38
56	2
60	2
61	15
62	33
63	70
64	24
65	67
66	16
67	11
68	2
69	3
73	3
74	9
75	5
76	4
77	39
78	7
79	17
80	24
81	682
82	39
83	3
91	1
92	7
93	6
94	4
95	22
96	3
105	1
107	2
109	999
110	69
111	6
121	3
122	1
124	795
125	63
126	5
