Mass Spectrum: Diethylmethyl(2-(3-methyl-2-phenylvaleryloxy)-ethyl)ammonium bromide
Formula: C19H32BrNO2
CAS: 90-22-2
Molecular weight: 385
m/z	intensity
14	1
15	25
17	1
25	1
26	7
27	35
28	28
29	62
30	33
39	9
40	2
41	27
42	39
43	16
44	72
45	4
50	1
51	6
52	1
53	3
54	3
55	8
56	32
57	37
58	55
59	2
62	1
63	5
64	1
65	8
66	1
67	1
68	1
69	6
70	31
71	26
72	847
73	40
74	1
76	1
77	9
78	4
79	7
80	2
81	4
82	2
83	2
84	21
85	182
86	999
87	63
88	3
89	8
90	15
91	125
92	12
93	9
94	47
95	8
96	44
97	3
98	2
99	129
100	34
101	3
102	5
103	6
104	2
105	42
106	4
107	3
108	42
109	3
110	40
111	1
114	1
115	14
116	7
117	28
118	27
119	3
127	1
128	3
129	3
130	1
131	9
132	1
135	5
136	25
137	2
145	5
146	3
147	13
148	2
149	1
162	4
163	17
164	2
174	4
175	2
192	2
219	18
220	3
242	8
244	8
262	5
263	1
276	11
277	5
278	1
290	2
291	7
292	1
