Mass Spectrum: 2,5-Hexadienoic acid, 3-methoxy-5-methyl-4-oxo-
Formula: C8H10O4
CAS: 90-65-3
Molecular weight: 170
m/z	intensity
40	31
41	165
42	49
43	36
45	35
49	3
50	17
51	19
52	11
53	75
54	13
55	42
56	23
57	18
58	4
59	54
60	3
61	4
62	8
63	8
64	2
65	17
66	20
67	18
69	999
70	56
71	19
72	12
73	11
74	4
75	3
77	6
78	3
79	14
80	3
81	14
82	24
83	37
84	61
85	16
86	22
87	37
91	3
93	7
94	14
95	13
96	14
97	37
98	11
99	25
101	127
102	12
105	3
107	3
109	21
110	12
111	47
112	29
113	7
114	2
115	5
119	2
120	2
121	3
122	13
123	10
124	40
125	81
126	27
127	190
128	25
129	483
130	41
131	8
135	2
137	7
138	13
139	3
140	25
141	33
142	112
143	10
145	2
149	7
152	4
153	11
155	9
167	4
170	128
171	17
172	2
