Mass Spectrum: 1-Bromomethyl-2-chlorocyclohexane
Formula: C7H12BrCl
CAS: 90009-23-7
Molecular weight: 210
m/z	intensity
38	13
39	197
40	39
41	246
42	20
43	9
44	24
45	2
50	14
51	45
52	12
53	127
54	43
55	134
56	5
57	3
61	3
62	19
63	10
64	8
65	37
66	16
67	154
68	74
69	46
75	36
76	4
77	49
78	10
79	63
80	8
81	130
82	6
88	11
89	14
91	17
93	17
94	31
95	999
96	74
130	9
132	3
210	19
211	1
212	25
213	2
214	6
