Mass Spectrum: 1,3-Cyclooctadiene, 5-bromo-
Formula: C8H11Br
CAS: 90002-40-7
Molecular weight: 186
m/z	intensity
26	17
27	118
28	14
29	71
30	2
31	1
36	1
37	9
38	33
39	250
40	40
41	150
42	9
43	9
44	3
45	5
49	5
50	75
51	151
52	89
53	90
54	23
55	29
56	4
57	7
58	3
59	2
60	2
61	6
62	20
63	54
64	13
65	150
66	63
67	86
68	9
69	4
70	2
71	2
72	1
73	5
74	19
75	16
76	13
77	292
78	231
79	999
80	109
81	21
82	4
83	3
84	2
85	2
86	2
87	3
88	1
89	10
90	6
91	380
92	74
93	24
94	7
95	9
96	2
97	3
98	3
99	2
100	1
101	2
102	6
103	29
104	12
105	132
106	44
107	612
108	71
109	6
110	1
111	1
112	1
115	1
117	2
119	4
120	1
126	1
127	1
128	2
129	1
130	1
131	1
132	2
133	1
134	2
135	0
136	1
137	0
138	1
139	1
140	0
141	1
142	1
143	1
144	2
145	2
146	2
147	2
148	1
156	1
157	7
158	4
159	6
160	3
171	1
173	1
184	1
185	4
186	40
187	8
188	39
189	4
