Mass Spectrum: Bicyclo[4.1.0]heptan-2-ol, 3,7,7-trimethyl-, (1.alpha.,2.alpha.,3.beta.,6.alpha.)-
Formula: C10H18O
CAS: 90026-62-3
Molecular weight: 154
m/z	intensity
29	297
30	10
31	61
36	0
37	2
38	8
39	321
41	886
42	103
43	999
44	29
45	38
46	1
47	0
48	1
49	0
50	10
51	47
52	20
53	164
54	74
55	548
56	308
57	198
58	53
59	73
60	3
61	1
62	2
63	11
64	2
65	63
66	22
67	649
68	99
69	619
70	221
71	198
72	332
73	18
74	1
75	1
76	0
77	112
78	19
79	221
80	64
81	639
82	662
83	379
84	235
85	226
86	20
87	1
89	2
91	88
92	30
93	252
94	63
95	311
96	328
97	412
98	277
99	33
100	2
101	0
102	0
103	4
104	1
105	28
106	8
107	119
108	28
109	24
110	20
111	716
112	311
113	24
114	1
115	1
116	0
117	1
119	5
120	1
121	296
122	29
123	35
124	3
125	22
126	8
127	0
133	0
134	0
135	3
136	103
137	18
138	2
139	176
140	17
141	1
145	0
152	1
153	2
154	195
155	19
156	1
