Mass Spectrum: Isonicotinyl formaldoxime
Formula: C7H6N2O2
CAS: 90036-10-5
Molecular weight: 150
m/z	intensity
41	12
42	1
43	34
44	132
45	14
48	1
50	416
51	949
52	103
53	31
54	10
55	4
57	0
60	2
61	13
62	23
63	39
64	11
65	7
66	4
67	5
68	1
71	2
72	12
74	8
75	30
76	29
78	616
79	40
80	2
84	1
86	0
87	0
88	0
91	1
92	2
94	8
95	11
105	42
106	999
122	12
123	80
124	8
132	4
133	38
134	5
149	2
150	249
151	49
152	6
