Mass Spectrum: Sambucoin
Formula: C15H22O3
CAS: 90044-34-1
Molecular weight: 250
m/z	intensity
41	697
43	999
55	468
69	367
81	324
83	263
91	245
93	808
95	234
108	496
109	504
111	236
123	224
124	411
125	413
126	194
137	85
138	80
139	86
153	49
161	41
163	33
165	76
175	28
177	84
179	49
187	19
193	24
195	27
196	16
207	14
217	14
233	23
235	416
236	65
249	9
250	525
251	89
