Mass Spectrum: 2-Trichloromethyl-1-bicyclo[2.2.1]heptane
Formula: C8H11Cl3
CAS: 90086-53-6
Molecular weight: 212
m/z	intensity
39	120
40	33
41	100
42	7
43	5
45	7
47	5
49	12
50	16
51	51
52	12
53	37
54	23
55	37
63	12
64	3
65	37
66	27
67	323
68	128
69	19
73	21
74	5
75	23
76	6
77	60
78	19
79	35
80	33
81	19
82	10
83	14
84	6
85	14
86	8
87	17
89	8
91	21
92	6
93	12
94	28
95	999
96	80
97	6
99	17
100	6
101	17
102	6
103	13
105	24
109	47
110	6
111	40
112	6
113	34
114	6
115	15
119	11
135	13
137	9
141	34
142	4
143	11
144	2
177	9
178	2
179	6
180	3
212	1
214	1
216	0
