Mass Spectrum: Dichloroacetic acid, undecyl ester
Formula: C13H24Cl2O2
CAS: 90146-85-3
Molecular weight: 282
m/z	intensity
25	2
26	15
27	59
28	2
29	131
30	4
31	2
35	6
36	56
37	4
38	23
39	70
40	21
41	440
42	174
43	726
44	53
45	4
47	4
48	20
49	10
50	12
51	9
52	5
53	36
54	78
55	840
56	689
57	952
58	38
59	1
61	1
63	1
65	8
66	9
67	116
68	264
69	999
70	850
71	519
72	27
73	3
75	1
76	80
77	22
78	31
79	25
80	6
81	57
82	382
83	136
84	663
85	526
86	32
87	16
91	9
92	2
93	9
94	23
95	40
96	128
97	941
98	361
99	119
100	8
101	2
105	3
106	2
107	3
108	1
109	11
110	48
111	366
112	152
113	77
114	5
115	7
117	1
119	2
120	1
121	1
123	6
124	22
125	113
126	316
127	32
128	6
129	31
130	3
131	19
132	1
133	6
134	1
135	4
136	1
137	2
139	2
141	5
143	2
147	1
150	1
152	15
153	17
154	143
155	24
156	2
157	1
169	7
171	5
181	4
189	1
191	1
199	61
200	8
211	3
