Mass Spectrum: 4-Fluorobenzoic acid, 3-phenylpropyl ester
Formula: C16H15FO2
CAS: 90172-20-6
Molecular weight: 258
m/z	intensity
26	8
27	25
28	4
29	16
31	4
37	8
38	15
39	61
40	4
41	29
42	4
43	4
44	19
45	9
49	4
50	52
51	66
52	19
53	9
55	4
56	4
57	8
61	7
62	16
63	35
64	8
65	73
66	4
67	4
68	16
69	29
70	8
74	25
75	115
76	21
77	75
78	47
79	31
89	19
90	14
91	295
92	39
93	11
94	27
95	305
96	39
97	11
102	9
103	49
104	38
105	37
106	4
107	4
115	38
116	81
117	523
118	999
119	103
120	4
122	4
123	419
124	35
140	21
141	8
