Mass Spectrum: 4-Amino-N-1-azabicyclo[2.2.2]oct-3-yl-5-chloro-2-methoxybenzamide
Formula: C15H20ClN3O2
CAS: 90182-92-6
Molecular weight: 309
m/z	intensity
15	2
27	11
28	21
29	11
30	12
36	2
38	2
39	17
40	6
41	53
42	98
43	27
44	19
45	3
46	3
47	2
50	7
51	14
52	16
53	18
54	26
55	23
56	29
57	8
58	6
61	3
62	3
63	19
64	6
65	18
66	5
67	16
68	27
69	23
70	404
71	21
72	2
73	4
74	3
75	9
76	8
77	12
78	48
79	16
80	20
81	21
82	77
83	48
84	27
85	5
87	5
88	2
89	8
90	61
91	14
92	13
93	22
94	21
95	8
96	104
97	21
98	9
99	15
100	3
101	6
102	2
104	4
105	2
106	9
107	11
108	74
109	999
110	91
111	8
112	7
113	48
114	12
115	19
116	4
119	2
120	8
121	8
123	6
124	3
125	270
126	51
127	10
128	18
129	3
133	6
135	2
137	2
138	2
139	2
140	8
141	93
142	8
143	28
144	5
146	3
148	7
149	15
150	5
153	4
154	25
155	10
156	12
157	3
158	2
167	1
168	4
169	40
170	22
171	15
172	7
178	2
182	7
183	8
184	661
185	56
186	224
187	25
188	3
197	2
199	1
201	9
202	2
203	2
208	3
226	6
227	4
229	2
239	1
252	2
308	2
309	83
310	12
311	26
312	5
