Mass Spectrum: 24-Isopropyl-5,23-cholestadien-3.beta.-ol
Formula: C30H50O
CAS: 90195-40-7
Molecular weight: 426
m/z	intensity
41	273
42	11
43	385
44	18
53	53
55	927
56	23
57	240
58	12
65	25
67	315
68	38
69	999
70	85
71	49
77	76
78	17
79	227
80	33
81	402
82	63
83	233
84	16
85	19
91	198
92	36
93	202
94	47
95	266
96	34
97	150
98	23
103	11
105	222
106	40
107	202
108	45
109	202
110	26
111	61
112	30
115	15
117	72
118	27
119	155
120	46
121	125
122	25
123	65
124	30
125	20
128	18
129	42
130	23
131	108
132	30
133	347
134	51
135	117
136	19
137	47
141	11
142	13
143	71
144	37
145	189
146	35
147	138
148	22
149	131
150	21
151	182
152	36
154	28
155	14
157	58
158	50
159	231
160	47
161	78
162	22
163	133
164	24
165	22
169	12
171	33
172	13
173	96
174	21
175	60
176	24
177	58
178	13
183	12
185	37
186	11
187	64
188	12
189	32
197	21
199	38
201	31
203	24
211	16
213	59
214	16
215	122
216	22
217	12
227	32
228	11
229	36
230	20
231	19
239	21
241	50
243	16
253	33
254	25
255	43
257	18
267	20
270	275
271	444
272	486
273	94
274	11
281	33
282	14
283	205
284	45
285	20
296	14
299	112
300	69
301	54
302	11
314	178
315	44
365	13
393	15
411	16
426	177
427	52
