Mass Spectrum: 2-Norbornanol, formate
Formula: C8H12O2
CAS: 90199-27-2
Molecular weight: 140
m/z	intensity
26	7
27	95
28	25
29	95
30	2
31	18
37	3
38	12
39	161
40	42
41	246
42	39
43	61
44	21
45	23
51	27
52	12
53	92
54	49
55	134
56	28
57	98
58	35
62	3
63	9
64	2
65	63
66	999
67	522
68	593
69	48
70	63
71	31
73	12
77	60
78	20
79	879
80	50
81	61
82	6
83	91
84	34
85	4
91	26
92	5
93	77
94	752
95	241
96	20
97	35
98	6
99	2
111	24
112	11
122	2
140	1
