Mass Spectrum: 26,26-Dimethyl-5,23-ergostadien-3.beta.-ol
Formula: C30H50O
CAS: 90195-41-8
Molecular weight: 426
m/z	intensity
41	322
42	23
43	381
53	81
54	17
55	881
56	39
57	235
58	13
65	39
66	15
67	407
68	52
69	999
70	150
71	121
77	131
78	35
79	419
80	63
81	842
82	157
83	424
84	38
85	47
91	500
92	93
93	460
94	111
95	628
96	61
97	250
98	40
99	19
103	31
104	26
105	355
106	69
107	332
108	66
109	268
110	45
111	71
112	26
115	26
116	14
117	84
118	27
119	132
120	57
121	120
122	22
123	54
124	18
125	14
128	20
129	38
130	16
131	83
132	21
133	188
134	29
135	56
136	12
137	24
142	11
143	42
144	22
145	103
146	19
147	78
148	18
149	61
150	13
151	88
152	20
157	40
158	24
159	104
160	22
161	42
162	13
163	60
164	12
171	26
173	64
174	13
175	42
176	13
177	32
178	11
183	11
185	27
187	53
188	12
189	29
191	11
197	17
199	39
201	36
203	28
211	21
213	73
214	21
215	106
216	23
217	21
227	32
228	12
229	28
230	17
231	23
239	19
241	43
242	13
243	15
245	11
253	56
254	32
255	41
257	15
267	17
270	250
271	500
272	236
273	58
281	28
282	20
283	206
284	38
285	15
296	13
299	71
300	65
301	44
302	11
314	59
315	13
365	11
393	11
408	36
409	18
411	19
426	97
427	39
