Mass Spectrum: Carbamic acid, N-(3-nitropyrid-4-yl)-, ethyl ester
Formula: C8H9N3O4
CAS: 90223-38-4
Molecular weight: 211
m/z	intensity
33	14
34	34
37	251
38	489
39	370
40	676
41	172
42	121
43	260
44	912
45	174
46	54
48	5
49	25
50	209
51	180
52	662
53	279
54	156
55	62
56	19
57	17
62	27
63	144
64	582
65	324
66	489
67	94
68	75
69	39
70	28
71	8
75	28
76	65
77	63
78	107
79	395
80	113
81	208
82	28
91	274
92	137
93	999
94	141
95	38
104	22
105	26
106	33
107	42
108	24
109	115
119	154
120	31
122	156
123	28
136	36
137	447
138	84
139	438
140	25
142	6
149	8
150	10
152	29
153	4
165	201
166	59
167	15
182	41
184	49
185	4
210	33
211	301
212	29
