Mass Spectrum: 3,7-Diazabicyclo[3.3.1]nonane, 3,7-diacetyl-9,9-dimethyl-1,5-dinitro-
Formula: C13H20N4O6
CAS: 90237-67-5
Molecular weight: 328
m/z	intensity
33	0
39	31
43	999
46	7
50	1
51	4
53	39
54	11
55	16
56	10
57	1
58	1
59	1
60	1
63	1
64	1
65	14
67	34
68	14
69	4
70	3
72	7
73	0
75	0
77	28
79	32
80	53
82	31
83	6
84	3
85	0
86	0
88	0
89	0
91	22
92	7
93	19
94	30
95	12
96	7
97	2
98	2
99	0
101	0
103	1
104	3
105	10
106	26
107	32
108	44
110	17
111	2
113	0
114	0
115	2
117	1
118	5
120	36
122	208
123	15
124	6
125	1
126	0
132	2
134	54
135	84
136	18
137	4
138	7
139	1
140	0
146	0
147	0
149	6
150	7
151	18
152	7
153	4
155	0
162	2
163	5
164	21
165	11
166	15
167	4
168	2
169	2
175	1
176	0
177	4
178	5
179	10
180	3
181	1
193	61
194	10
195	2
196	0
197	0
198	13
199	1
209	0
210	0
211	4
212	0
221	0
222	1
226	0
235	3
236	0
240	665
241	81
242	9
243	21
244	2
252	0
271	3
282	159
283	24
284	2
285	1
328	4
329	1
