Mass Spectrum: 2-Butenoic acid, 4-oxo-4-(phenylamino)-, methyl ester
Formula: C11H11NO3
CAS: 90278-98-1
Molecular weight: 205
m/z	intensity
24	3
26	56
27	37
29	17
30	4
31	11
33	0
36	0
37	7
38	29
39	129
40	27
41	33
42	9
43	2
44	2
45	2
46	2
49	1
50	25
51	82
52	24
53	93
54	79
55	22
56	1
57	2
58	0
59	208
60	9
61	4
62	9
63	37
64	37
65	188
66	67
67	7
68	1
69	2
70	0
71	0
72	0
73	12
74	5
75	5
76	8
77	111
78	12
79	2
80	4
81	38
82	23
83	1
85	166
86	9
87	14
88	1
89	9
90	14
91	32
92	53
93	999
94	84
95	5
96	0
97	0
98	0
99	1
100	0
101	1
102	1
103	4
104	11
105	2
106	2
107	2
108	0
111	0
113	339
114	24
115	3
116	5
117	39
118	34
119	9
120	6
121	0
126	0
128	56
129	8
130	1
131	1
132	15
133	1
134	0
141	0
144	5
145	217
146	534
147	57
148	3
149	0
160	1
161	0
162	0
172	14
173	39
174	83
175	10
176	1
177	3
178	0
190	2
205	198
206	22
207	2
