Mass Spectrum: 2,2,5,5-Tetramethyl-4-(p-fluorophenyl)-3-imidazoline-3-oxide
Formula: C13H17FN2O
CAS: 90277-88-6
Molecular weight: 236
m/z	intensity
30	8
31	4
32	51
36	4
38	6
39	33
40	8
41	47
42	153
43	9
44	4
50	7
51	11
52	3
53	34
54	8
55	6
56	30
57	22
58	999
59	39
60	3
63	7
67	3
68	4
69	4
70	12
71	17
74	3
75	19
76	6
77	10
78	3
81	4
82	12
83	12
84	38
85	4
87	3
88	3
89	6
94	7
102	3
128	8
129	12
132	3
133	85
134	67
135	16
136	4
137	3
145	3
146	12
147	32
148	20
149	820
150	78
151	3
161	3
162	9
163	6
164	20
175	3
176	2
177	3
178	4
179	6
180	3
189	6
190	8
203	3
205	30
206	8
218	3
220	3
221	6
236	166
237	23
