Mass Spectrum: 1,2-Dihydro-4H-2-(.alpha.-furyl)-3,1-benzoxazine
Formula: C12H11NO2
CAS: 90284-37-0
Molecular weight: 201
m/z	intensity
38	70
39	390
40	240
41	100
43	80
44	260
50	90
51	420
52	120
53	180
59	70
63	60
65	180
66	60
77	550
78	650
79	120
81	890
89	60
91	230
92	120
93	150
94	110
95	100
96	180
97	60
103	60
104	999
105	970
106	450
115	70
116	60
117	60
118	140
119	70
120	240
121	60
122	50
123	540
130	80
132	190
133	80
134	350
143	70
144	90
145	50
146	60
154	170
155	100
156	110
158	50
160	50
170	100
172	170
173	100
174	50
183	310
184	300
185	80
200	130
201	900
202	340
