Mass Spectrum: 1,2-Dihydro-4H-2-(.alpha.-thienyl)-3,1-benzoxazine
Formula: C12H11NOS
CAS: 90284-36-9
Molecular weight: 217
m/z	intensity
39	140
40	70
45	70
51	150
52	80
65	60
77	240
78	380
85	60
91	90
97	690
98	60
104	640
105	999
106	110
111	120
112	100
120	200
132	110
184	100
216	70
217	700
218	90
219	60
