Mass Spectrum: 1,2-Dihydro-4H-2-(o-hydroxyphenyl)-3,1-benzoxazine
Formula: C14H13NO2
CAS: 90284-40-5
Molecular weight: 227
m/z	intensity
39	170
40	70
45	60
50	70
51	380
52	80
53	60
63	100
64	90
65	270
66	60
76	100
77	620
78	230
79	80
89	150
90	310
91	300
92	140
93	530
94	80
100	60
104	220
105	460
106	999
107	410
120	300
121	320
122	230
132	70
152	80
154	60
167	70
180	610
181	320
182	70
196	170
198	60
208	170
209	840
210	230
226	70
227	780
228	160
