Mass Spectrum: l-Leucine, N-[N-[(1,1-dimethylethoxy)carbonyl]-l-.alpha.-glutamyl]-, bis(phenylmethyl) ester
Formula: C30H40N2O7
CAS: 90293-27-9
Molecular weight: 540
m/z	intensity
27	23
28	63
29	53
30	28
31	6
37	6
38	12
39	84
40	19
41	226
42	15
43	27
44	148
49	5
50	28
51	50
52	15
53	22
54	13
55	58
56	146
57	452
58	28
59	19
63	16
65	52
69	30
70	15
71	5
74	9
77	67
78	18
79	108
80	12
83	9
84	315
85	61
86	241
87	16
89	17
90	24
91	999
92	132
93	5
97	8
100	9
102	25
105	12
106	5
107	95
108	118
109	10
113	4
114	5
129	18
130	7
142	5
146	12
149	13
154	5
163	4
164	5
166	12
167	12
174	41
175	11
176	7
181	6
191	7
192	565
193	87
194	8
197	46
204	7
215	11
220	4
222	6
223	4
225	8
236	109
237	34
238	4
241	10
243	3
248	18
250	4
264	28
265	5
269	10
276	4
277	5
281	8
287	7
292	122
293	43
294	6
297	3
305	15
320	3
331	6
332	27
333	11
349	24
350	5
352	3
405	16
406	4
421	7
439	9
440	3
467	26
468	7
484	41
485	12
540	86
541	31
542	6
