Mass Spectrum: Bifemelane
Formula: C18H23NO
CAS: 90293-01-9
Molecular weight: 269
m/z	intensity
15	1
18	2
27	7
28	3
29	13
30	18
31	14
32	4
38	1
39	18
40	2
41	17
42	61
43	19
44	999
45	27
50	5
51	20
52	6
53	8
54	3
55	43
56	26
57	67
58	16
59	26
60	1
62	2
63	11
64	3
65	16
66	1
67	1
68	4
69	4
70	18
71	10
72	1
73	6
74	3
75	4
76	6
77	46
78	24
79	5
81	1
82	9
83	3
84	78
85	10
86	650
87	43
88	2
89	13
90	4
91	131
92	11
100	1
101	2
102	18
103	4
104	1
105	4
106	10
107	11
108	1
113	2
114	2
115	41
116	6
117	2
118	2
119	2
120	1
126	6
127	20
128	32
129	17
130	3
131	7
132	1
133	1
134	1
139	14
140	2
141	7
142	1
147	2
150	3
151	13
152	67
153	49
154	19
155	28
156	3
160	1
162	6
163	14
164	14
165	114
166	24
167	10
168	6
169	2
172	2
173	1
176	1
177	1
178	4
179	4
180	2
181	53
182	11
183	26
184	15
185	2
194	1
195	4
196	1
197	4
209	1
210	1
223	1
224	1
238	10
239	1
268	1
269	102
270	21
271	2
