Mass Spectrum: N-(1-Naphthylsulfonyl)-l-phenylalanyl chloride
Formula: C19H16ClNO3S
CAS: 90291-46-6
Molecular weight: 373
m/z	intensity
26	1
27	6
28	2
30	1
35	10
36	32
37	3
38	10
39	20
40	2
41	7
43	1
44	3
45	2
48	3
50	9
51	28
52	5
53	2
57	1
58	1
61	1
62	5
63	23
64	13
65	58
66	4
67	2
69	3
74	9
75	24
76	13
77	65
78	8
79	7
80	3
86	2
87	6
88	3
89	36
90	41
91	541
92	47
93	3
94	1
95	1
98	2
99	3
100	4
101	37
102	12
103	7
104	3
105	2
106	1
107	2
108	3
109	1
113	2
114	5
115	38
116	29
117	190
118	999
119	101
120	7
121	1
123	1
125	5
126	70
127	858
128	171
129	14
130	1
131	3
132	1
134	2
139	2
140	2
141	6
142	2
143	44
144	10
145	2
146	1
147	9
148	1
152	1
153	1
154	9
155	6
156	1
157	1
158	3
159	7
160	42
161	6
162	4
163	2
164	1
165	2
166	2
167	3
168	11
169	1
172	1
173	1
174	4
175	20
176	11
177	2
178	1
182	4
183	6
184	4
189	2
190	1
191	218
192	30
193	12
194	2
201	1
202	21
203	15
204	3
207	24
208	3
209	1
213	2
214	1
215	23
216	12
217	56
218	65
219	13
220	2
226	1
227	3
228	5
229	3
230	3
231	1
240	1
241	2
242	4
243	9
244	27
245	78
246	15
247	3
264	2
282	3
284	1
290	2
291	3
292	1
293	1
309	444
310	180
311	48
312	10
313	1
327	1
373	7
374	1
375	2
