Mass Spectrum: 4-Chloro-N-(2-hydroxypropionyl)-benzenesulfonamide
Formula: C9H10ClNO4S
CAS: 90346-78-4
Molecular weight: 263
m/z	intensity
15	11
26	6
27	45
28	16
29	41
30	4
31	1
34	1
35	1
36	2
37	3
38	9
39	12
40	3
41	3
42	13
43	140
44	33
45	999
46	27
47	4
48	5
49	6
50	134
51	70
52	6
53	3
54	3
55	8
56	3
57	3
58	2
59	1
60	3
61	17
62	9
63	27
64	15
65	21
66	3
67	1
68	1
69	13
70	9
71	3
72	7
73	27
74	85
75	478
76	96
77	47
78	5
79	3
80	3
81	3
82	3
83	2
84	10
85	51
86	7
87	23
88	18
89	5
90	8
91	25
92	8
93	6
94	6
95	5
96	3
97	2
98	1
99	38
100	29
101	16
102	5
103	2
104	2
105	6
106	4
107	6
108	27
109	11
110	13
111	788
112	467
113	287
114	146
115	11
116	2
117	4
118	1
119	3
120	1
121	6
122	4
123	2
124	3
125	2
126	27
127	51
128	408
129	42
130	126
131	20
132	2
133	5
134	2
135	2
136	3
137	1
138	1
139	4
140	3
141	6
142	3
143	4
144	13
145	3
146	2
147	1
148	2
150	2
151	1
152	1
155	9
156	2
157	3
158	1
159	32
160	4
161	11
162	2
163	1
168	1
169	1
170	3
171	1
172	12
173	2
175	393
176	186
177	161
178	68
179	15
180	4
181	1
182	1
183	3
184	2
185	1
189	1
190	1
191	18
192	2
193	8
194	1
195	1
199	119
200	11
201	41
202	5
203	1
205	1
216	1
217	7
218	232
219	24
220	129
221	15
222	21
223	3
224	1
227	2
229	1
241	1
242	1
248	5
249	1
250	2
