Mass Spectrum: S-2-[3-[2-Pyridyloxy]propylamino]ethylthiosulfate
Formula: C10H16N2O4S2
CAS: 90378-94-2
Molecular weight: 292
m/z	intensity
41	490
42	451
43	191
44	152
45	83
46	21
48	333
50	95
51	137
52	78
53	57
54	53
55	49
56	210
57	98
58	60
59	59
60	51
61	118
64	990
66	178
67	439
68	78
70	999
71	35
72	30
73	22
74	14
75	22
76	25
77	3
78	195
79	32
80	63
81	41
82	50
83	93
84	295
85	49
86	14
87	13
88	163
90	40
92	14
93	22
95	904
96	406
97	26
98	3
99	8
100	9
101	26
102	42
103	15
104	17
105	3
106	22
107	10
108	40
109	60
110	17
111	9
112	15
113	8
114	32
115	22
116	65
117	83
118	18
120	21
122	92
124	28
125	11
126	24
127	6
128	13
129	40
130	19
131	4
132	7
133	2
134	26
135	56
136	232
137	25
139	8
140	11
141	7
142	10
143	11
144	10
145	6
146	5
147	8
148	1
149	29
150	31
151	7
152	21
153	18
154	7
155	1
156	12
157	2
158	4
159	8
160	9
161	6
162	5
163	6
164	3
165	217
166	22
167	7
169	5
170	6
171	2
172	3
173	4
174	3
175	2
176	3
177	5
178	24
179	65
180	6
181	8
182	1
183	4
184	2
185	2
186	2
187	1
189	0
191	3
192	12
193	5
194	5
195	2
196	3
197	3
199	5
201	5
202	0
203	1
204	2
205	1
206	0
207	2
209	2
211	10
212	5
213	19
214	0
215	3
219	0
221	0
222	0
223	4
224	6
225	4
226	3
227	0
228	2
236	11
237	2
242	0
244	23
245	3
246	4
247	2
250	4
251	0
252	1
292	3
