Mass Spectrum: Thiosulfuric acid S-[2-[5-[3-[dimethylamino]-p-tolyl]oxy]pentyl]amino]ethyl ester
Formula: C16H28N2O4S2
CAS: 90378-63-5
Molecular weight: 376
m/z	intensity
41	162
42	174
43	59
44	159
45	18
46	6
47	9
48	187
50	16
51	17
52	14
53	20
54	11
55	50
56	66
57	20
58	25
59	17
60	15
61	124
62	4
64	412
65	26
66	30
67	22
68	16
69	80
70	42
71	4
72	17
73	4
75	31
77	68
78	21
79	37
80	12
81	9
82	23
83	9
84	66
86	121
87	7
88	23
89	14
90	71
91	37
92	12
93	13
94	11
95	5
96	16
98	999
99	23
100	105
102	161
103	11
104	20
105	10
106	22
107	35
108	28
109	18
110	14
112	175
113	15
114	20
115	3
116	15
117	57
118	35
119	17
120	42
121	21
122	64
123	20
124	23
125	51
126	13
128	11
129	6
130	8
131	6
132	14
133	12
134	53
135	25
136	193
137	62
138	17
140	7
142	9
144	41
145	2
146	115
147	14
148	25
149	27
150	116
151	235
152	115
153	13
154	8
156	7
157	2
158	55
159	7
160	9
161	6
162	29
163	15
164	49
165	7
166	6
168	1
174	4
175	3
176	13
177	7
178	19
179	1
180	1
181	4
182	4
184	4
188	5
190	8
191	4
192	25
193	4
204	8
205	5
206	13
207	1
218	8
219	9
220	10
221	2
222	1
233	1
235	7
236	21
237	9
247	8
249	141
250	26
251	2
252	1
261	9
262	25
263	89
264	17
265	2
275	11
277	3
279	9
280	3
282	1
293	7
294	9
295	16
296	120
297	35
298	9
305	1
307	22
308	41
309	11
310	4
320	1
324	1
327	4
328	6
333	3
334	1
