Mass Spectrum: Thiosulfuric acid S-[2-[4-[3-[dimethylamino]-p-tolyl]oxy]butyl]amino]ethyl ester
Formula: C15H26N2O4S2
CAS: 90378-59-9
Molecular weight: 362
m/z	intensity
41	89
42	341
43	95
44	159
45	45
46	12
47	17
48	345
50	27
51	35
52	27
53	40
54	25
55	153
56	107
57	36
58	40
59	47
60	41
61	179
62	10
63	19
64	757
65	47
66	63
67	25
68	28
69	22
70	113
71	21
72	329
73	22
75	216
76	17
77	112
78	35
79	47
80	23
81	22
82	33
84	999
85	61
86	77
87	17
88	26
89	25
90	42
91	54
92	16
93	24
94	20
95	6
96	21
97	24
98	181
99	15
100	33
101	10
102	146
103	19
104	30
105	14
106	31
107	44
108	37
109	13
110	67
112	14
114	19
115	10
116	17
117	25
118	83
119	20
120	66
121	26
122	98
123	25
124	20
126	3
127	3
128	18
129	4
130	47
131	14
132	309
133	34
134	67
135	21
136	224
137	150
138	28
139	3
140	6
141	3
142	16
144	283
145	25
146	33
147	12
148	28
149	22
150	137
151	348
152	77
153	8
154	2
156	2
158	5
160	15
161	4
162	24
163	16
164	25
165	6
168	2
170	2
172	3
174	13
175	3
176	12
177	11
178	13
188	6
189	4
190	10
191	11
192	16
204	5
206	16
208	3
221	2
222	14
235	37
236	7
249	23
268	2
280	2
282	31
283	5
293	2
362	15
