Mass Spectrum: S-[2-[3-Benzylaminopropylamino]ethyl] thiophosphate
Formula: C12H21N2O3PS
CAS: 90378-24-8
Molecular weight: 304
m/z	intensity
41	89
42	115
43	79
44	326
45	42
46	10
47	20
48	4
49	6
50	16
51	37
52	12
53	6
54	14
55	15
56	121
57	63
58	175
59	32
60	23
61	76
62	8
63	24
64	13
65	118
66	8
67	4
68	14
69	10
70	126
71	27
72	110
73	50
74	7
75	5
76	6
77	40
78	18
79	32
80	5
81	5
82	8
83	20
84	61
85	19
86	17
87	19
88	94
89	31
90	131
91	999
92	82
93	6
94	1
95	2
96	5
97	7
98	7
99	6
100	4
101	9
102	30
103	8
104	59
105	23
106	165
107	33
108	11
109	2
110	0
111	4
112	3
113	5
114	6
115	7
116	15
117	22
118	56
119	37
120	160
121	19
122	5
123	3
124	7
125	1
126	2
127	2
128	4
129	4
130	8
132	60
133	28
134	93
135	13
136	3
140	2
143	2
144	4
145	5
146	43
147	30
148	20
149	13
150	1
151	3
155	3
156	1
157	1
158	2
159	3
160	3
161	0
162	3
163	7
164	15
165	11
166	2
173	2
174	5
175	7
177	35
178	12
179	4
180	1
187	0
188	3
189	4
191	69
192	10
193	4
194	1
196	0
201	0
202	2
203	6
205	3
217	2
223	12
224	9
225	24
226	4
233	0
234	1
235	6
237	1
247	1
248	1
249	1
256	11
257	0
