Mass Spectrum: Thiosulfuric acid S-2-[[5-[[2-isopropyl-5-methylcyclohexyl]oxy]pentyl]amino]ethyl ester
Formula: C17H35NO4S2
CAS: 90392-63-5
Molecular weight: 381
m/z	intensity
41	999
42	202
43	493
44	306
45	30
48	185
50	31
51	71
52	28
53	239
55	763
56	158
57	240
58	27
59	21
61	208
63	10
64	225
65	65
67	570
68	135
69	385
70	92
71	64
72	7
76	3
77	116
79	220
81	800
82	182
83	374
84	76
85	96
86	80
87	13
88	16
90	182
91	61
93	70
95	711
96	112
97	24
98	366
100	89
102	33
105	7
107	13
109	47
110	13
112	15
114	25
116	775
117	43
123	144
124	12
128	7
130	20
133	7
138	146
139	30
144	16
146	39
148	3
162	164
163	5
164	47
254	146
255	22
302	30
381	3
