Mass Spectrum: 3-[p-Chlorophenylsulfonyl]propionic acid
Formula: C9H9ClO4S
CAS: 90396-00-2
Molecular weight: 248
m/z	intensity
41	2
42	8
43	45
45	333
46	7
47	6
48	9
49	12
50	223
51	125
52	7
53	8
55	251
56	880
57	33
58	8
59	7
60	3
61	21
62	12
63	39
64	10
65	40
66	2
67	1
69	20
70	4
71	6
72	8
73	201
74	119
75	537
76	129
77	70
78	6
79	7
81	6
82	5
83	1
84	15
85	58
86	8
87	26
89	8
91	9
92	3
93	6
94	1
95	12
96	6
97	2
99	58
100	15
101	20
102	8
103	27
104	1
105	4
106	1
107	8
108	20
109	7
110	18
111	999
112	348
113	346
114	109
115	11
117	1
121	7
123	4
124	2
125	19
127	102
128	175
129	42
130	63
131	38
133	17
135	1
137	2
138	10
139	9
140	6
141	5
142	4
143	21
144	3
145	6
147	2
149	3
157	6
159	316
160	42
161	114
162	15
163	6
171	1
173	1
175	383
176	527
177	169
178	191
179	18
180	8
181	2
184	1
192	110
193	37
194	43
195	13
196	2
199	2
202	1
203	4
204	2
213	2
215	3
216	5
217	1
218	1
229	2
230	1
231	190
232	25
233	70
234	9
235	4
248	224
249	64
250	76
251	22
252	7
