Mass Spectrum: 3-(O-Nitrophenyl)-2-oxo-1,3-oxazolidine
Formula: C9H8N2O4
CAS: 90417-72-4
Molecular weight: 208
m/z	intensity
14	3
15	25
16	1
25	1
26	39
27	153
28	184
29	36
30	77
31	9
36	1
37	50
38	97
39	356
40	35
41	58
42	164
43	999
44	69
45	8
46	9
49	9
50	277
51	623
52	189
53	54
54	13
55	7
56	10
57	3
58	9
59	7
60	4
61	24
62	65
63	269
64	274
65	491
66	132
67	23
68	5
69	2
70	3
71	2
73	9
74	70
75	103
76	384
77	985
78	406
79	195
80	119
81	9
82	1
83	1
85	1
86	3
87	9
88	19
89	100
90	446
91	912
92	494
93	66
94	15
95	6
96	1
97	1
99	1
100	1
101	2
102	18
103	110
104	167
105	286
106	288
107	57
108	12
109	2
111	1
114	1
115	2
116	58
117	552
118	267
119	165
120	103
121	53
122	21
123	5
124	1
129	4
130	25
131	16
132	158
133	124
134	119
135	296
136	474
137	39
138	3
145	25
146	678
147	142
148	113
149	66
150	54
151	5
160	14
161	71
162	507
163	58
164	8
165	1
174	1
175	1
176	1
177	5
178	183
179	18
180	2
190	1
191	187
192	22
193	2
194	1
207	2
208	467
209	59
210	7
