Mass Spectrum: 2,3,4-Trimethylpentanoic acid
Formula: C8H16O2
CAS: 90435-18-0
Molecular weight: 144
m/z	intensity
39	9
41	47
43	117
45	14
55	56
56	19
57	37
69	42
70	23
71	757
72	23
73	107
74	999
75	28
83	56
85	9
87	589
88	19
101	136
102	112
103	23
111	5
129	9
