Mass Spectrum: 1-Methoxy-1-methyl-1-silacyclopentane
Formula: C6H14OSi
CAS: 90464-98-5
Molecular weight: 130
m/z	intensity
36	6
37	4
38	6
39	83
40	6
41	65
42	58
43	228
44	44
45	271
46	15
47	17
50	15
51	15
52	4
53	41
54	10
55	51
56	18
57	17
58	94
59	999
60	78
61	119
62	2
63	4
65	4
66	4
67	8
68	2
69	17
70	8
71	68
72	4
73	9
74	801
75	218
76	45
77	8
83	75
84	8
85	29
86	8
87	86
88	49
89	8
95	9
96	2
97	18
98	2
99	23
100	2
101	65
102	829
103	86
104	28
105	11
106	2
111	4
113	67
114	11
115	681
116	78
117	31
130	267
131	29
132	8
133	1
