Mass Spectrum: 1-[(1H-Pyrrol-2-ylcarbonyl)oxy]-2,5-pyrrolidinedione
Formula: C9H8N2O4
CAS: 90471-24-2
Molecular weight: 208
m/z	intensity
27	18
28	5
38	22
39	103
40	15
41	13
42	12
55	22
56	74
57	7
61	16
65	14
66	139
67	13
69	6
70	19
82	8
83	6
93	22
94	999
95	81
98	14
99	20
143	15
208	79
209	10
