Mass Spectrum: Bis(N-tert-butyldithiocarbamato)platinum(ii)
Formula: C10H20N2PtS4
CAS: 90491-33-1
Molecular weight: 491
m/z	intensity
15	69
27	593
32	261
33	168
34	411
41	999
57	834
72	118
76	667
77	241
83	75
115	448
149	28
259	5
303	6
311	5
343	7
375	12
418	8
491	6
