Mass Spectrum: 3-Phenyl-5-hydroxyiminomethyl-1,2,4-oxadiazole
Formula: C9H7N3O2
CAS: 90507-20-3
Molecular weight: 189
m/z	intensity
41	59
42	20
43	87
44	217
45	3
47	0
48	1
49	22
50	231
51	406
52	77
53	18
54	15
55	5
56	13
57	5
59	1
60	1
61	29
62	102
63	264
64	328
65	88
66	8
67	2
68	5
69	8
70	4
71	29
72	30
73	10
74	53
75	73
76	174
77	420
78	26
79	2
80	2
82	1
84	4
85	6
86	16
87	27
88	61
89	133
91	551
92	34
93	2
95	4
97	0
99	6
100	5
101	3
102	13
103	154
104	49
105	14
106	4
107	0
110	0
111	1
112	0
114	25
115	24
116	4
118	551
119	999
120	70
121	3
124	1
127	1
128	38
129	6
130	1
141	1
142	5
143	1
144	1
145	18
146	1
147	0
157	0
171	6
173	3
189	981
190	114
191	10
