Mass Spectrum: 2,4-Hexadienoyl chloride
Formula: C6H7ClO
CAS: 90554-82-8
Molecular weight: 130
m/z	intensity
26	47
27	73
29	36
37	35
38	64
39	241
40	84
41	546
50	78
51	104
52	54
62	52
63	70
65	193
66	116
67	622
68	44
83	13
95	999
96	73
97	14
102	53
104	17
130	118
131	11
132	40
