Mass Spectrum: (3-Phenylureido)sulfur pentafluoride
Formula: C7H7F5N2OS
CAS: 90598-04-2
Molecular weight: 262
m/z	intensity
39	121
51	55
64	98
65	345
66	138
70	14
76	69
89	69
91	138
92	276
93	999
119	241
120	98
124	41
127	98
222	34
242	14
262	207
