Mass Spectrum: 1,4-Phenylenebis(oxycarbonylamino)bis(sulfur pentafluoride)
Formula: C8H6F10N2O4S2
CAS: 90597-97-0
Molecular weight: 448
m/z	intensity
47	192
53	192
54	173
55	115
70	115
81	327
82	195
89	385
108	115
109	250
110	999
127	693
150	346
169	77
170	50
242	50
258	50
262	50
278	50
306	1
408	1
448	1
