Mass Spectrum: (2-Acetylacetoacetamido)sulphur pentafluoride
Formula: C6H8F5NO3S
CAS: 90598-19-9
Molecular weight: 269
m/z	intensity
27	39
28	39
39	27
42	71
43	999
44	42
56	34
69	54
70	64
84	64
85	123
89	46
98	150
104	18
125	18
126	25
127	93
128	111
142	24
227	3
254	3
269	7
