Mass Spectrum: 3-Buten-2-ol, 1-bromo-1-cyclohexylidene-
Formula: C10H15BrO
CAS: 90598-27-9
Molecular weight: 230
m/z	intensity
26	11
27	164
28	14
29	106
30	4
31	21
37	3
38	16
39	224
40	37
41	281
42	31
43	70
44	11
45	8
46	5
50	26
51	99
52	44
53	150
54	32
55	336
56	20
57	140
58	8
59	4
60	5
61	3
62	9
63	33
64	14
65	125
66	53
67	320
68	49
69	84
70	15
71	15
73	2
74	5
75	6
76	5
77	209
78	58
79	295
80	52
81	249
82	32
83	125
84	9
85	21
86	2
87	2
89	9
90	6
91	999
92	98
93	121
94	43
95	133
96	16
97	14
98	16
99	9
102	4
103	23
104	28
105	231
106	28
107	134
108	33
109	71
110	15
111	7
113	2
115	16
116	9
117	31
118	17
119	12
120	9
121	34
122	13
123	25
124	4
125	3
126	3
127	3
128	3
129	5
131	22
132	9
133	328
134	39
135	61
136	3
137	49
138	3
139	2
141	2
144	10
145	5
146	12
147	6
148	5
149	17
150	5
151	89
152	10
153	3
156	9
157	9
158	12
159	14
160	5
161	12
162	2
163	8
164	2
165	2
169	52
170	210
171	71
172	204
173	31
174	10
175	11
176	8
183	11
184	5
185	19
186	16
187	29
188	13
189	20
190	2
197	4
198	4
199	6
200	7
201	25
202	8
203	37
204	5
205	15
212	73
213	11
214	71
215	11
228	7
229	2
230	39
231	5
232	39
233	4
