Mass Spectrum: N-(Pentafluorosulfanyl)urea
Formula: CH3F5N2OS
CAS: 90598-01-9
Molecular weight: 186
m/z	intensity
27	133
28	139
29	194
41	333
42	333
43	444
44	999
56	83
57	222
70	42
85	111
89	167
104	222
124	111
127	250
143	167
186	83
