Mass Spectrum: (3,3-Diethylureido)sulphur pentafluoride
Formula: C5H11F5N2OS
CAS: 90598-08-6
Molecular weight: 242
m/z	intensity
28	692
29	769
30	999
42	585
44	615
56	615
58	960
59	307
70	215
72	461
73	262
89	308
100	385
104	200
127	92
150	708
222	38
