Mass Spectrum: [Methyl(methoxycarbonyl)amino]sulphur pentafluoride
Formula: C3H6F5NO2S
CAS: 90598-21-3
Molecular weight: 215
m/z	intensity
15	86
28	500
29	143
30	43
31	43
42	143
43	107
44	64
59	999
70	50
88	150
89	357
118	143
127	643
135	36
136	71
170	307
184	143
215	14
