Mass Spectrum: 2(1H)-Pyrimidinone, 4-amino-1-(4,5-dihydroxy-3-(hydroxymethyl)-2-cyclopenten-1-yl)-,(1R-(1-.alpha.,4-.beta.,5-.beta.))-
Formula: C10H13N3O4
CAS: 90597-22-1
Molecular weight: 239
m/z	intensity
42	987
43	510
44	272
45	48
47	106
49	263
50	120
51	272
52	242
53	429
54	243
55	481
56	103
57	107
60	132
65	114
66	122
67	195
68	290
69	385
70	139
71	71
79	104
80	129
81	271
82	234
83	192
84	174
86	84
92	37
93	32
94	82
95	128
96	83
97	78
98	31
99	15
109	80
110	163
111	301
112	999
113	67
119	48
131	49
133	14
147	18
174	36
175	6
192	97
193	10
203	105
204	12
210	56
211	5
222	274
223	29
