Mass Spectrum: [(Dimethylamino)methylenimino]sulphur pentafluoride
Formula: C3H7F5N2S
CAS: 90598-16-6
Molecular weight: 198
m/z	intensity
30	43
42	229
43	77
44	999
69	57
70	57
71	336
76	229
89	77
127	164
141	43
179	114
198	143
