Mass Spectrum: (Methoxythioformamido)sulphur pentafluoride
Formula: C2H4F5NOS2
CAS: 90597-99-2
Molecular weight: 217
m/z	intensity
29	187
31	293
32	683
42	158
43	276
44	191
45	140
51	455
57	135
58	272
59	81
60	104
63	69
64	195
66	81
73	999
74	97
75	74
77	118
81	102
89	305
91	28
101	431
103	276
104	23
105	51
108	15
112	20
127	285
129	15
134	23
143	12
146	15
150	10
159	11
166	31
185	165
187	15
217	53
218	3
219	5
