Mass Spectrum: (4-Methylbenzylidenimino)sulfur pentafluoride
Formula: C8H8F5NS
CAS: 90598-13-3
Molecular weight: 245
m/z	intensity
39	151
41	38
50	47
51	75
63	113
65	302
89	207
91	999
92	94
110	75
117	75
118	434
119	170
120	94
127	94
136	47
226	19
245	434
