Mass Spectrum: (Piperidinoformamido)sulfur pentafluoride
Formula: C6H11F5N2OS
CAS: 90598-09-7
Molecular weight: 254
m/z	intensity
27	125
28	175
29	800
30	350
39	650
41	140
42	200
55	450
56	175
67	400
68	700
69	300
70	250
81	750
82	265
83	999
89	550
111	250
125	650
127	265
129	550
130	300
165	125
170	115
210	250
211	400
