Mass Spectrum: [(4-Hydroxyphenoxy)formamido]sulfur pentafluoride
Formula: C7H6F5NO3S
CAS: 90597-98-1
Molecular weight: 279
m/z	intensity
41	10
42	22
43	40
46	13
47	74
50	19
51	31
52	42
53	124
54	115
55	74
62	11
63	22
64	16
65	26
70	22
80	27
81	212
82	117
83	12
89	85
93	91
94	11
108	70
109	214
110	999
111	153
112	31
127	144
128	25
129	7
137	20
150	29
169	7
170	2
237	4
259	7
260	1
261	1
279	12
280	3
281	1
