Mass Spectrum: Furfurylideniminosulphur pentafluoride
Formula: C5H4F5NOS
CAS: 90598-15-5
Molecular weight: 221
m/z	intensity
29	350
37	278
38	578
39	999
51	114
66	343
67	150
69	114
70	57
85	342
86	428
89	200
93	114
94	543
127	257
202	28
221	143
