Mass Spectrum: 3.beta.-Acetoxy-5.alpha.-pregnan-20-one
Formula: C23H36O3
CAS: 906-83-2
Molecular weight: 360
m/z	intensity
41	69
43	999
44	22
53	18
55	109
57	19
61	33
67	96
68	14
69	27
71	78
77	52
79	131
80	19
81	133
83	26
84	152
85	32
91	119
92	19
93	130
94	31
95	116
105	95
106	30
107	128
108	66
109	59
117	18
119	66
120	25
121	75
122	25
123	21
131	37
132	14
133	63
134	40
135	64
136	13
143	14
145	58
146	13
147	71
148	18
149	29
157	15
159	40
160	18
161	36
162	14
163	17
173	31
174	21
175	27
185	13
187	22
189	13
192	18
201	27
213	25
215	192
216	40
217	57
227	14
229	25
230	16
236	22
242	17
246	65
255	25
257	40
258	18
267	18
275	16
285	85
289	13
300	350
301	76
302	38
304	20
314	13
316	18
342	43
360	64
361	13
