Mass Spectrum: Diisopropyl(ethoxy)silane
Formula: C8H20OSi
CAS: 90633-16-2
Molecular weight: 160
m/z	intensity
25	9
26	55
27	205
28	15
29	45
30	7
31	39
36	9
37	18
38	29
39	158
40	39
41	171
42	51
43	215
44	91
45	424
46	48
47	165
48	14
49	12
50	69
51	97
52	97
53	23
54	2
55	38
56	15
57	31
58	13
59	99
60	18
61	583
62	48
63	29
65	7
66	3
67	15
68	9
69	22
70	12
71	22
72	19
73	242
74	49
75	148
76	18
77	16
78	19
79	119
80	7
81	4
83	8
84	8
85	8
86	4
87	22
88	17
89	999
90	105
91	52
92	8
93	8
95	8
97	4
98	8
101	12
102	4
103	48
104	8
105	11
107	4
109	8
113	4
115	8
116	31
117	468
118	51
119	22
131	8
132	18
133	4
159	9
160	75
161	7
162	3
