Mass Spectrum: Acetamide, 2-(2,4-dichlorophenoxy)-N-methyl-
Formula: C9H9Cl2NO2
CAS: 90650-12-7
Molecular weight: 233
m/z	intensity
50	38
51	26
52	4
53	8
54	8
55	22
56	43
58	766
59	19
60	10
61	26
62	49
63	108
64	8
65	6
66	2
67	2
69	4
70	2
72	999
73	93
74	90
75	109
76	13
77	26
78	4
79	3
80	1
81	0
82	1
83	14
84	22
85	26
86	7
87	10
88	4
89	2
90	1
91	12
92	2
93	3
94	0
95	1
96	4
97	25
98	21
99	21
100	9
101	3
102	0
103	0
104	1
105	15
106	3
107	13
108	5
109	120
110	33
111	104
112	27
113	25
114	6
115	2
117	2
118	5
119	4
120	3
121	3
123	0
124	0
125	1
126	7
127	1
128	9
129	3
130	2
131	2
132	0
133	55
135	46
136	3
137	7
138	0
139	7
140	3
141	17
142	2
143	7
145	109
146	16
147	78
148	11
149	21
150	1
151	1
152	0
154	0
155	6
156	4
157	4
158	0
159	1
160	0
161	41
162	32
163	33
164	19
165	4
166	3
167	0
168	6
169	0
170	3
171	1
172	1
173	6
175	44
176	43
177	27
178	24
179	5
180	3
181	1
183	1
185	1
186	0
196	2
197	17
198	868
199	112
200	293
201	30
202	3
203	0
204	3
206	1
225	1
233	75
234	8
235	49
236	5
237	6
