Mass Spectrum: 4,4-Difluororetinyl acetate (all-trans)
Formula: C22H30F2O2
CAS: 90660-22-3
Molecular weight: 364
m/z	intensity
55	14
57	12
60	35
69	21
72	11
75	11
79	38
81	33
82	15
83	12
86	21
92	40
93	45
94	999
95	113
96	13
99	16
104	11
105	23
106	72
107	29
108	48
109	28
111	10
118	14
119	139
120	113
121	37
122	76
123	21
127	10
129	15
130	87
131	150
132	457
133	66
135	15
136	45
137	23
139	15
141	114
142	13
143	52
144	170
145	627
146	85
147	21
148	40
149	19
153	11
155	10
156	42
157	101
158	30
159	32
161	14
169	12
171	48
172	15
173	18
177	11
183	65
184	14
185	50
186	16
191	57
192	15
193	13
195	14
197	40
198	13
209	12
210	13
211	90
212	43
213	49
215	16
225	12
227	11
228	19
229	11
247	11
249	14
261	16
262	12
269	19
275	10
284	81
285	18
289	217
290	44
291	79
292	15
304	319
305	86
306	12
320	78
321	17
344	42
364	478
365	107
366	15
