Mass Spectrum: 5-Hexen-3-ol, 2,2,4-trimethyl-
Formula: C9H18O
CAS: 90676-50-9
Molecular weight: 142
m/z	intensity
26	5
27	97
28	4
29	204
30	9
31	23
36	1
37	1
38	5
39	99
40	17
41	502
42	34
43	749
44	21
45	239
46	6
50	6
51	15
52	5
53	39
54	10
55	182
56	455
57	519
58	108
59	26
60	1
61	1
62	1
63	3
64	1
65	11
66	5
67	58
68	31
69	514
70	42
71	114
72	12
73	6
75	2
76	2
77	12
78	4
79	6
80	1
81	9
82	6
83	22
84	55
85	175
86	16
87	999
88	54
89	3
91	9
92	2
93	3
94	6
95	6
96	2
97	3
98	1
99	3
109	9
115	3
