Mass Spectrum: 2-Propylcyclohexanol
Formula: C9H18O
CAS: 90676-25-8
Molecular weight: 142
m/z	intensity
15	10
17	3
18	10
26	9
27	190
28	17
29	187
30	9
31	56
32	5
37	1
38	8
39	164
40	27
41	451
42	112
43	231
44	154
45	46
46	1
49	1
50	9
51	27
52	13
53	92
54	220
55	398
56	158
57	699
58	71
59	10
61	1
62	2
63	8
64	2
65	25
66	78
67	465
68	436
69	219
70	83
71	194
72	33
73	9
74	2
75	2
76	1
77	52
78	10
79	78
80	45
81	639
82	999
83	130
84	12
85	42
86	20
87	2
89	2
91	14
92	2
93	14
94	18
95	457
96	335
97	31
98	65
99	141
100	18
101	1
103	2
105	2
106	1
107	173
108	15
109	57
110	7
111	10
112	1
113	27
114	8
115	3
117	1
120	1
121	1
123	8
124	345
125	33
126	2
140	1
141	7
142	11
143	1
