Mass Spectrum: 2-Ethylbutyl propionate
Formula: C9H18O2
CAS: 90677-00-2
Molecular weight: 158
m/z	intensity
15	3
18	1
26	8
27	105
28	35
29	327
30	9
31	19
38	2
39	44
40	7
41	134
42	80
43	333
44	10
45	6
50	1
51	3
52	1
53	13
54	12
55	207
56	199
57	999
58	49
59	22
60	1
65	1
67	5
68	3
69	299
70	54
71	95
72	7
73	3
74	15
75	75
76	2
82	1
83	14
84	614
85	77
86	11
87	135
88	93
89	14
90	1
99	63
100	22
101	6
111	2
128	2
129	16
130	1
158	1
