Mass Spectrum: 2-Butanoyl-5-methylfuran
Formula: C9H12O2
CAS: 90673-55-5
Molecular weight: 152
m/z	intensity
27	65
29	7
39	7
41	43
42	73
43	134
52	21
53	261
54	32
55	42
70	8
71	8
80	8
81	61
82	105
95	42
101	8
108	8
109	999
110	105
111	8
123	21
124	617
125	62
137	134
138	9
152	211
153	21
