Mass Spectrum: N-Methoxy-N-methylamino-N,N-diethylaminomethane
Formula: C7H18N2O
CAS: 90691-20-6
Molecular weight: 146
m/z	intensity
30	40
42	53
43	5
58	80
59	7
74	68
75	5
86	999
87	40
145	66
146	97
147	9
148	1
