Mass Spectrum: 2-(Diethylamino)-6-phenyl-4,4-bis(trifluoromethyl)-1,3,5-oxadiazine
Formula: C15H15F6N3O
CAS: 90697-66-8
Molecular weight: 367
m/z	intensity
33	1
34	5
35	1
36	4
37	2
38	5
39	12
40	67
41	16
42	134
43	34
44	154
45	8
46	1
47	7
48	1
49	2
50	31
51	71
52	10
53	6
54	9
55	41
56	231
57	38
58	21
59	1
60	1
61	1
62	2
63	5
64	4
65	2
66	1
67	2
68	5
69	46
70	106
71	125
72	317
73	16
74	8
75	14
76	57
77	160
78	12
79	2
80	1
81	2
83	35
84	38
85	6
86	1
87	2
88	1
89	2
90	2
91	6
92	59
93	2
94	1
95	5
96	7
97	3
98	9
99	23
100	999
101	62
102	8
103	80
104	49
105	172
106	12
107	2
108	2
109	1
111	2
112	1
113	2
114	5
115	2
116	1
117	1
118	1
119	2
121	4
122	4
123	2
124	3
125	1
126	1
127	1
128	2
129	1
130	2
132	1
134	1
135	1
139	1
141	3
142	75
143	3
144	1
145	1
146	1
147	1
149	3
151	1
152	1
153	1
154	1
158	2
159	2
162	1
164	1
167	3
172	1
173	2
174	1
175	1
178	90
179	5
183	1
184	1
185	1
189	1
190	1
191	9
192	72
193	5
194	5
195	58
196	4
207	1
214	1
218	1
221	7
224	3
226	3
229	4
233	1
234	1
235	2
236	1
244	7
245	1
249	140
250	10
253	1
262	2
263	5
264	21
265	2
268	1
270	1
295	3
296	1
298	136
299	19
300	2
367	32
368	5
