Mass Spectrum: S,S'-Bis(2-dimethylaminoethyl) methylphosphonodithioate
Formula: C9H23N2OPS2
CAS: 90723-34-5
Molecular weight: 270
m/z	intensity
30	141
42	270
43	98
44	119
45	26
56	96
57	37
58	999
59	45
61	18
70	46
71	208
72	128
73	16
102	12
104	5
105	10
106	2
167	60
168	5
169	2
199	14
200	13
201	2
