Mass Spectrum: 4-Hydroxy-4,5,6,7,8,9,10,11-octahydrothieno[2,3-d]azecine-9-carbonitrile
Formula: C12H16N2OS
CAS: 90779-18-3
Molecular weight: 236
m/z	intensity
70	330
97	560
98	350
110	580
111	999
123	280
125	670
126	330
137	240
149	160
164	140
175	120
192	340
193	740
235	110
236	180
