Mass Spectrum: 4-(2-Chloroethyl)-styrene
Formula: C10H11Cl
CAS: 90794-48-2
Molecular weight: 166
m/z	intensity
39	14
51	18
65	12
91	48
115	98
116	30
117	999
118	93
166	300
168	104
