Mass Spectrum: .alpha.-Santoline alcohol
Formula: C10H18O
CAS: 90823-36-2
Molecular weight: 154
m/z	intensity
41	302
42	30
43	129
50	15
51	32
52	15
53	159
54	15
55	252
56	21
57	21
58	21
59	13
63	8
65	38
66	13
67	490
68	34
69	47
77	93
78	21
79	121
80	47
81	142
82	27
83	13
84	4
91	55
92	8
93	125
94	38
95	999
96	125
97	19
98	13
105	15
106	4
107	23
108	6
109	6
110	4
111	21
112	13
119	6
121	32
122	4
123	25
124	4
125	15
136	6
139	51
154	15
