Mass Spectrum: 2-Methyl-3-(2,2-dimethylpropyl)-butadiene
Formula: C10H18
CAS: 90822-87-0
Molecular weight: 138
m/z	intensity
39	60
41	581
53	149
57	999
65	148
67	200
77	161
79	239
82	431
91	110
123	210
138	129
