Mass Spectrum: 2,2,7,7-Tetramethyl-4,5-dimethyleneoctane
Formula: C14H26
CAS: 90822-63-2
Molecular weight: 194
m/z	intensity
38	1
39	95
40	17
41	359
42	14
43	20
50	1
51	20
52	17
53	43
54	4
55	51
56	10
57	999
58	39
63	5
64	3
65	54
66	5
67	51
68	5
69	10
71	2
77	99
78	15
79	137
80	13
81	30
82	178
83	15
84	4
89	1
91	163
92	12
93	59
94	10
95	20
96	10
97	2
103	4
104	2
105	43
106	4
107	64
108	6
109	12
110	1
115	3
117	1
119	3
120	3
122	3
123	188
124	20
125	1
134	1
136	4
137	10
138	93
139	10
151	2
179	3
194	17
195	3
196	1
