Mass Spectrum: 4,5-Dihydro-.beta.,.beta.,4,4-tetramethyl-1H-pyrazole-1-propanol
Formula: C10H20N2O
CAS: 90832-26-1
Molecular weight: 184
m/z	intensity
55	80
56	70
57	20
68	10
69	20
70	10
82	20
83	80
84	60
97	20
98	120
99	10
111	999
112	100
153	30
154	10
169	10
184	90
185	10
