Mass Spectrum: 2-Methyl-5-(piperid-1-yl-sulfonyl)-benzimidazole
Formula: C13H17N3O2S
CAS: 90861-25-9
Molecular weight: 279
m/z	intensity
64	70
65	20
78	50
82	9
83	20
84	999
85	60
90	40
104	49
131	288
132	250
133	30
147	49
148	20
153	9
179	29
195	148
196	19
197	19
215	20
278	29
279	99
280	20
281	10
