Mass Spectrum: Bis[2-mesylamidoethyl]disulfide
Formula: C6H16N2O4S4
CAS: 90889-07-9
Molecular weight: 308
m/z	intensity
41	29
42	111
44	999
45	127
46	24
47	50
48	15
49	8
50	1
55	3
56	19
57	9
58	40
59	25
60	148
61	49
62	17
63	44
64	32
65	17
66	4
69	6
71	4
74	67
75	85
76	24
77	12
79	276
80	20
81	20
83	3
85	3
87	3
88	19
89	3
90	11
92	31
93	45
94	7
96	91
97	1
98	7
106	45
108	736
110	40
112	1
118	1
122	817
123	12
124	63
134	1
152	13
153	16
154	28
155	59
156	13
157	8
159	45
161	8
166	6
168	11
183	48
184	4
185	7
187	46
188	1
189	7
198	6
200	1
201	14
203	13
213	91
214	7
215	44
216	3
308	62
309	14
310	17
311	4
