Mass Spectrum: 1-Phenyl-3-formyl-4-hydroxypyrazole
Formula: C10H8N2O2
CAS: 90884-25-6
Molecular weight: 188
m/z	intensity
27	30
28	1
29	62
38	20
39	52
40	63
44	16
50	84
51	320
57	70
63	25
64	15
65	13
74	19
75	20
76	40
77	735
78	146
79	11
85	211
94	10
103	13
104	999
105	143
106	13
133	27
159	16
160	10
187	27
188	776
189	89
