Mass Spectrum: Benzoic acid, 3-(acetylthio)-
Formula: C9H8O3S
CAS: 90887-44-8
Molecular weight: 196
m/z	intensity
15	23
16	1
25	1
26	2
27	5
28	5
29	3
31	1
37	6
38	14
39	48
40	3
41	4
42	18
43	999
44	26
45	62
46	2
47	3
49	3
50	33
51	28
52	4
53	26
54	4
55	3
56	1
57	10
58	23
59	8
60	5
61	15
62	21
63	69
64	15
65	115
66	40
67	3
68	2
69	94
70	7
71	10
72	1
73	4
74	20
75	16
76	12
77	15
78	3
79	2
80	1
81	24
82	45
83	9
84	15
85	6
86	1
87	1
89	1
90	1
91	4
92	12
93	8
94	2
95	3
96	3
97	29
98	3
99	2
100	1
103	1
104	2
105	11
106	6
107	18
108	96
109	98
110	62
111	9
112	2
119	8
120	2
121	6
122	5
123	5
124	1
125	4
126	2
127	1
128	1
135	14
136	671
137	125
138	41
139	6
149	1
150	1
151	2
153	62
154	242
155	23
156	12
157	1
165	1
179	6
180	1
181	1
195	1
196	53
197	5
198	3
