Mass Spectrum: Bicyclo[2.2.0]hex-2-ene-1-carboxylic acid, 5,5,6,6-tetracyano-2,3,4-tri(1,1-dimethylethyl)-, 1,1-dimethylethyl ester
Formula: C27H36N4O2
CAS: 90908-10-4
Molecular weight: 448
m/z	intensity
26	4
27	49
29	336
30	10
31	9
37	1
38	5
39	68
40	86
41	466
42	23
43	38
44	9
45	1
50	2
51	6
52	2
53	14
54	2
55	36
56	22
57	999
58	48
59	31
61	0
63	2
64	2
65	6
66	2
67	9
68	1
69	11
70	1
71	0
73	1
75	2
76	2
77	13
78	3
79	13
80	2
81	9
82	1
83	9
84	1
85	0
87	0
88	1
89	1
90	2
91	17
92	2
93	8
94	2
95	6
96	0
97	4
98	0
100	2
101	1
102	2
103	4
104	1
105	14
106	3
107	19
108	7
109	4
110	1
111	1
112	0
113	0
114	1
115	7
116	4
117	6
118	2
119	15
120	5
121	19
122	6
123	8
124	1
125	1
126	6
127	3
128	5
129	5
130	2
131	6
132	3
133	14
134	6
135	24
136	3
137	4
138	19
139	5
140	2
141	2
142	4
143	3
144	2
145	6
146	2
147	18
148	6
149	36
150	6
151	11
152	126
153	15
154	5
155	3
156	2
157	3
158	3
159	5
160	2
161	17
162	4
163	40
164	12
165	18
166	17
167	6
168	4
169	3
170	3
171	2
172	2
173	5
174	4
175	22
176	4
177	6
178	3
179	13
180	3
181	5
182	2
183	3
184	2
185	3
186	3
187	3
188	2
189	13
190	8
191	8
192	2
193	93
194	14
195	4
196	3
197	4
198	2
199	2
200	1
201	2
202	1
203	9
204	1
205	12
206	5
207	93
208	280
209	46
210	8
211	2
212	3
213	1
214	1
215	2
216	1
217	1
218	1
219	36
220	7
221	15
222	5
223	4
224	3
225	1
226	1
227	1
228	0
231	11
232	3
233	3
234	4
235	6
236	5
237	2
238	2
239	1
240	1
243	0
244	1
245	1
246	1
247	7
248	4
249	61
250	15
251	4
252	2
253	2
254	1
255	0
256	0
258	1
259	1
260	1
261	2
262	3
263	2
264	73
265	17
266	3
267	1
268	1
271	0
274	1
275	1
276	2
277	7
278	2
279	3
280	10
281	2
283	0
287	0
289	1
290	1
291	14
292	5
293	2
294	1
297	0
301	0
303	1
304	1
305	2
306	2
307	1
308	1
309	1
317	0
319	2
320	58
321	16
322	2
333	3
334	1
335	0
336	2
337	0
347	1
348	1
349	0
375	21
376	6
377	6
378	2
393	0
433	1
448	0
