Mass Spectrum: 6-Ethyl-5-[4-phenylmethyl]-1-piperazinyl-2,4(1H,3H)-pyrimidinedione
Formula: C17H22N4O2
CAS: 90904-84-0
Molecular weight: 314
m/z	intensity
41	193
42	470
43	61
44	93
45	19
46	1
47	22
48	7
49	90
50	16
51	91
52	28
53	37
54	120
55	87
56	582
57	40
58	25
60	8
62	3
63	34
65	230
66	10
67	27
68	65
69	37
70	41
71	11
72	4
73	2
76	3
77	33
78	23
79	17
80	12
81	18
82	17
83	20
84	32
85	2
86	17
88	2
89	27
91	999
92	45
93	3
94	6
95	18
96	27
97	13
98	3
103	2
104	21
105	14
106	7
107	2
109	20
110	10
111	9
112	5
113	1
114	2
117	18
118	32
119	42
120	32
121	5
122	4
123	19
124	6
125	4
126	1
130	2
131	1
132	29
133	36
134	58
135	7
137	14
139	29
140	5
144	4
146	191
147	50
148	7
149	3
150	2
151	4
152	7
153	7
154	9
155	2
159	2
160	1
161	8
164	2
166	37
167	12
168	65
169	6
178	5
179	1
180	27
181	25
182	8
183	23
184	2
192	1
194	10
195	25
196	17
197	1
207	10
209	2
222	2
223	122
224	12
237	1
285	5
286	1
299	43
300	7
313	4
314	58
315	12
316	1
