Mass Spectrum: 4-Imidazolidinone, 1-(phenylmethyl)-2-thioxo-
Formula: C10H10N2OS
CAS: 90915-07-4
Molecular weight: 206
m/z	intensity
33	11
34	7
35	1
36	27
39	453
40	53
42	606
43	109
44	186
45	271
46	195
47	32
48	10
50	250
51	452
52	126
53	30
54	16
55	10
56	13
58	67
59	53
60	10
61	27
62	47
63	139
65	502
66	24
67	4
68	1
69	4
70	13
72	240
73	24
74	56
75	38
77	455
78	164
79	327
80	21
82	2
83	1
84	1
85	2
86	4
87	5
89	93
91	999
93	5
94	3
95	0
96	0
97	0
99	8
100	4
101	2
103	123
104	177
105	492
107	706
108	48
109	4
110	0
111	0
112	0
113	0
114	0
116	4
118	36
119	8
120	2
121	2
123	4
124	0
125	0
126	0
128	3
130	24
131	25
132	23
133	5
134	1
135	2
136	2
137	0
138	0
139	0
141	0
142	0
143	0
146	33
148	745
149	86
150	7
151	0
152	0
155	0
161	0
162	0
163	1
164	3
165	0
166	0
173	0
174	0
175	0
177	1
178	1
179	0
180	0
205	1
206	7
207	1
208	0
