Mass Spectrum: Acetamide, N-methyl-N-(2-methyl-4-nitrophenyl)-
Formula: C10H12N2O3
CAS: 90918-52-8
Molecular weight: 208
m/z	intensity
37	7
38	25
39	71
40	17
41	38
43	999
45	2
46	20
48	0
49	5
50	83
51	181
52	87
53	33
54	25
56	20
57	11
58	1
60	0
61	19
62	51
63	186
64	74
65	120
66	74
67	30
68	17
69	3
70	0
71	1
72	2
74	54
75	48
76	89
77	321
78	108
79	61
80	44
82	2
83	2
85	5
86	14
87	22
89	203
90	110
91	220
92	63
93	61
94	10
98	1
99	2
100	0
101	1
102	22
103	45
104	188
105	49
106	34
107	35
108	53
109	7
115	3
116	26
117	107
118	221
119	286
120	122
121	15
122	1
129	0
130	1
131	6
132	8
133	11
134	22
135	51
136	601
137	52
138	1
145	2
146	9
147	22
149	155
150	30
151	30
152	1
160	3
161	8
162	6
163	12
165	113
166	472
167	38
168	1
178	1
190	0
191	8
193	102
194	11
205	11
208	382
209	38
210	4
