Mass Spectrum: Methyl-6-phenyl-3,5-dioxo-2,3,4,5-tetrahydro[1,2,4]triazine
Formula: C10H9N3O2
CAS: 90946-40-0
Molecular weight: 203
m/z	intensity
50	101
51	119
57	49
58	49
63	240
76	161
77	238
89	240
91	239
103	321
104	198
118	999
203	599
