Mass Spectrum: 2-tert-Butyl-3,4,5,6-tetrahydropyridine
Formula: C9H17N
CAS: 90949-17-0
Molecular weight: 139
m/z	intensity
41	287
43	179
55	307
56	210
57	999
69	129
70	308
71	50
82	80
83	361
84	160
96	29
97	150
98	110
112	39
124	158
138	30
139	19
