Mass Spectrum: 7-Nonenamide
Formula: C9H17NO
CAS: 90949-53-4
Molecular weight: 155
m/z	intensity
26	4
27	67
28	24
29	84
30	8
31	3
38	4
39	104
40	15
41	165
42	39
43	71
44	233
45	13
46	3
50	3
51	10
52	6
53	47
54	37
55	202
56	38
57	76
58	8
59	999
60	52
61	4
62	1
63	2
64	1
65	8
66	5
67	48
68	20
69	43
70	9
71	6
72	409
73	102
74	6
75	1
77	8
78	2
79	21
80	5
81	25
82	11
83	14
84	12
85	10
86	43
87	13
88	1
91	4
92	1
93	4
94	24
95	24
96	20
97	21
98	56
99	15
100	53
101	5
102	1
108	2
109	10
110	5
111	3
112	45
113	16
114	9
115	2
119	1
120	1
121	2
122	1
123	8
124	1
126	39
127	6
128	2
135	1
137	2
138	26
139	4
140	10
141	6
154	2
155	107
156	15
157	1
