Mass Spectrum: 1H-Benzotriazole-1-sulfonamide, N,N-dimethyl-
Formula: C8H10N4O2S
CAS: 90953-24-5
Molecular weight: 226
m/z	intensity
33	7
34	18
37	136
38	165
39	493
40	72
42	811
43	263
44	950
45	57
46	4
48	40
49	8
50	61
51	81
52	68
53	6
54	11
55	10
56	7
57	9
58	3
59	1
60	5
61	40
62	102
63	364
64	391
65	69
66	10
67	2
68	3
69	10
70	7
71	9
72	1
73	0
74	6
75	7
76	11
77	25
78	102
79	12
80	3
81	3
82	6
83	5
84	1
85	0
86	3
87	10
88	19
90	288
91	143
92	502
93	23
94	24
95	1
98	68
99	3
100	2
102	0
103	3
104	8
106	145
108	999
110	77
111	1
112	0
113	1
115	2
116	0
117	3
118	9
119	81
120	9
121	0
126	1
127	1
128	1
129	0
131	14
133	78
134	31
135	1
138	1
139	11
140	0
144	1
145	5
146	1
148	8
149	1
151	1
154	0
155	2
167	6
168	10
169	1
171	2
182	8
198	98
199	10
200	11
226	222
227	20
228	8
