Mass Spectrum: 1-Benzyl-4-ethoxy-1,5-dihydro-pyrrol-2-one
Formula: C13H15NO2
CAS: 90968-38-0
Molecular weight: 217
m/z	intensity
12	2
13	3
14	12
15	57
16	7
17	45
18	171
19	2
26	56
27	371
28	129
29	418
30	41
31	7
32	1
37	6
38	29
39	232
40	51
41	143
42	203
43	162
44	22
45	12
49	2
50	45
51	116
52	35
53	22
54	14
55	219
56	27
57	11
58	10
60	1
61	2
62	16
63	74
64	23
65	305
66	24
67	27
68	69
69	273
70	45
71	36
72	2
73	2
74	8
75	9
76	12
77	90
78	37
79	32
80	6
81	4
82	16
83	31
84	144
85	359
86	22
87	5
89	82
90	52
91	999
92	105
93	18
94	9
95	9
96	8
97	11
98	41
99	7
100	1
101	1
102	5
103	68
104	81
105	32
106	74
107	16
108	2
110	5
111	12
112	67
113	251
114	19
115	23
116	10
117	42
118	133
119	17
120	195
121	26
122	2
124	1
126	59
127	9
128	11
129	8
130	18
131	61
132	36
133	7
134	1
139	14
140	67
141	7
142	5
143	5
144	10
145	7
146	20
147	5
149	2
154	4
155	2
156	1
157	1
158	4
159	3
160	7
161	2
170	2
171	2
172	14
173	3
174	2
175	1
186	1
188	536
189	80
190	7
191	1
200	1
202	0
216	60
217	441
218	74
219	8
220	0
