Mass Spectrum: Dimethyl (1-diazo-2-oxopropyl)phosphonate
Formula: C5H9N2O4P
CAS: 90965-06-3
Molecular weight: 192
m/z	intensity
33	1
37	2
38	3
39	24
40	25
41	16
42	24
43	181
44	10
45	12
46	2
47	82
48	14
49	4
50	5
51	7
52	2
53	7
54	4
55	13
56	4
57	5
60	2
62	11
63	83
64	10
65	39
66	3
69	2
71	3
73	1
77	29
78	4
79	133
80	21
81	3
82	2
85	2
88	13
89	35
90	15
91	257
92	6
93	999
94	42
95	130
96	142
97	12
98	1
99	2
103	62
104	50
105	35
106	91
107	142
108	93
109	848
110	107
111	18
112	3
117	11
118	7
119	150
120	12
121	12
122	11
123	2
133	2
135	10
149	2
150	6
164	13
165	3
192	35
193	5
