Mass Spectrum: .alpha.-(Carbobenzyloxy-.beta.-alanyl)-eta-carbobenzyloxy-l-lysine benzyl(ester)
Formula: C32H37N3O7
CAS: 90970-58-4
Molecular weight: 575
m/z	intensity
41	17
43	22
44	29
45	4
46	0
47	4
48	2
49	20
50	13
51	30
52	8
53	5
54	2
55	10
56	19
57	7
58	1
59	1
61	2
62	7
63	17
64	4
65	65
66	4
67	3
68	1
69	5
70	15
71	5
72	5
73	2
74	8
75	2
76	2
77	43
78	10
79	59
80	6
81	2
82	16
83	13
84	63
85	5
86	13
87	3
88	3
89	24
90	27
91	999
92	75
93	3
95	0
96	1
97	3
98	6
99	7
100	6
102	0
104	1
105	8
106	6
107	60
108	61
109	5
110	1
111	2
112	1
114	0
115	5
116	5
117	1
118	2
119	0
120	13
121	0
125	1
126	3
127	15
128	20
129	5
130	1
131	0
132	3
133	2
134	1
141	3
143	1
144	3
145	1
146	2
149	5
153	2
154	1
155	0
156	5
157	1
158	0
160	23
161	2
162	2
164	2
165	3
166	0
167	2
169	0
171	1
172	3
173	6
174	191
175	24
176	1
178	1
179	9
180	12
181	17
182	3
188	1
189	0
196	0
197	0
198	0
199	1
200	0
205	1
206	15
207	1
208	0
210	3
215	0
216	0
217	3
218	219
219	32
220	4
223	19
224	3
226	1
234	1
235	3
237	4
244	2
245	16
246	1
250	3
252	1
254	0
259	0
262	6
263	6
264	5
270	15
271	1
277	3
279	4
281	5
289	1
290	3
296	0
305	1
307	1
308	15
309	4
327	1
332	5
334	170
335	32
336	4
352	3
353	2
360	0
369	3
370	2
371	61
372	15
373	2
378	9
379	1
414	3
415	1
417	4
418	0
424	3
425	0
440	9
441	3
442	3
467	4
468	5
575	1
