Mass Spectrum: 1,2-Cycloheptanediol, trans-(.+/-.)-
Formula: C7H14O2
CAS: 90970-69-7
Molecular weight: 130
m/z	intensity
14	2
15	9
17	5
18	1
26	8
27	107
28	54
29	166
30	18
31	80
36	2
37	1
38	6
39	113
40	32
41	406
42	112
43	192
44	222
45	78
46	3
47	13
49	1
50	5
51	10
52	5
53	59
54	57
55	452
56	510
57	999
58	105
59	12
60	19
61	4
62	6
63	5
65	13
66	48
67	213
68	850
69	250
70	626
71	154
72	13
73	34
74	22
75	8
76	2
77	23
78	12
79	364
80	35
81	161
82	72
83	614
84	334
85	29
86	10
87	76
88	6
89	4
90	4
91	15
92	6
93	30
94	561
95	121
96	12
97	246
98	17
99	21
100	8
101	28
102	3
103	1
105	1
109	1
110	8
111	34
112	151
113	47
114	4
115	3
116	1
125	1
126	1
127	3
128	2
129	8
130	8
131	3
