Mass Spectrum: 3-Heptanol, trifluoroacetate
Formula: C9H15F3O2
CAS: 90991-69-8
Molecular weight: 212
m/z	intensity
16	1
17	1
27	167
28	32
29	278
32	1
39	102
40	29
41	999
42	150
43	258
44	13
45	4
50	5
51	7
53	25
54	42
55	260
56	604
57	540
58	23
61	49
67	20
68	44
69	846
70	316
71	19
83	47
85	13
97	13
98	189
99	46
100	2
113	7
119	1
125	4
141	3
153	3
154	17
155	55
156	3
169	1
182	2
183	8
