Mass Spectrum: Diazene, 2-methoxy-1-methyl-, 1-oxide
Formula: C2H6N2O2
CAS: 90994-12-0
Molecular weight: 90
m/z	intensity
28	90
29	130
30	999
31	70
42	40
43	150
44	80
45	920
46	30
60	40
75	450
90	560
91	16
