Mass Spectrum: Acetamide, N-butyl-N-phenyl-
Formula: C12H17NO
CAS: 91-49-6
Molecular weight: 191
m/z	intensity
15	3
26	1
27	14
28	4
29	14
30	3
37	1
38	2
39	20
40	3
41	22
42	15
43	144
44	5
45	1
50	8
51	42
52	7
53	4
54	2
55	6
56	3
57	7
58	1
60	1
62	1
63	7
64	7
65	22
66	9
67	1
71	1
72	1
73	19
74	3
75	2
76	6
77	139
78	23
79	31
80	3
86	1
87	1
89	2
90	2
91	19
92	11
93	117
94	13
98	6
99	1
100	1
102	1
103	3
104	48
106	999
107	100
108	4
115	1
116	1
117	7
118	21
119	19
120	55
121	5
130	3
131	1
132	10
133	2
135	178
136	17
137	1
146	1
148	28
149	21
150	2
162	8
163	1
176	4
191	54
192	8
193	1
