Mass Spectrum: 2,4-Octadienoic acid, 3-methyl-, methyl ester
Formula: C10H16O2
CAS: 91057-12-4
Molecular weight: 168
m/z	intensity
26	2
27	54
28	10
29	47
30	1
31	2
38	6
39	86
40	17
41	124
42	13
43	82
44	15
45	15
47	5
50	12
51	33
52	20
53	49
54	10
55	102
56	20
57	59
58	3
59	56
60	2
61	1
62	3
63	14
64	7
65	52
66	23
67	171
68	25
69	39
70	14
71	41
72	3
73	17
74	3
75	13
76	11
77	109
78	24
79	236
80	48
81	72
82	24
83	36
84	10
85	28
86	3
87	4
89	4
91	69
92	12
93	137
94	37
95	99
96	29
97	42
98	10
99	12
101	3
102	2
103	5
104	10
105	19
106	4
107	61
108	61
109	167
110	19
111	110
112	34
113	7
114	7
115	15
116	3
117	8
118	3
119	10
120	3
121	39
122	7
123	10
124	3
125	999
126	92
127	13
128	6
129	8
130	2
131	5
132	4
133	6
135	11
136	19
137	132
138	15
139	106
140	12
141	19
142	4
143	3
145	3
146	4
147	6
148	2
151	5
152	7
153	29
154	4
155	5
157	3
158	1
159	2
165	8
166	3
167	19
168	142
169	21
170	7
