Mass Spectrum: 1-Norbornanemethanol, acetate
Formula: C10H16O2
CAS: 91057-08-8
Molecular weight: 168
m/z	intensity
26	7
27	68
28	13
29	60
31	8
36	2
38	3
39	114
40	20
41	131
42	13
43	774
44	21
45	4
50	6
51	22
52	17
53	68
54	55
55	96
56	12
57	30
58	12
59	7
61	9
63	6
65	41
66	403
67	232
68	27
69	12
70	22
71	19
72	5
73	15
74	2
77	106
78	151
79	999
80	456
81	81
82	21
83	22
84	22
85	3
89	2
91	75
92	14
93	553
94	59
95	89
96	9
97	68
98	19
99	4
105	11
106	4
107	53
108	532
109	82
110	5
111	14
115	3
119	2
120	3
121	1
123	2
124	2
125	9
126	164
127	18
135	2
139	6
140	6
141	1
