Mass Spectrum: Benzeneethanamine, N-benzoyl-
Formula: C16H17NO
CAS: 91068-86-9
Molecular weight: 239
m/z	intensity
41	47
42	5
43	33
44	23
45	6
47	7
48	3
49	31
50	29
51	104
52	27
53	12
54	2
55	2
56	3
57	3
58	1
60	5
61	29
62	20
63	90
64	31
65	366
66	21
67	1
68	0
69	1
70	1
71	1
73	2
74	6
75	8
76	9
77	146
78	62
79	90
80	7
81	0
82	1
83	0
84	29
85	0
86	18
87	3
88	6
89	106
90	71
91	999
92	293
93	19
94	1
95	1
97	0
98	0
99	0
101	2
102	11
103	107
104	826
105	420
106	39
107	3
111	0
115	2
116	2
117	8
118	38
119	50
120	120
121	13
122	2
124	4
125	0
126	0
127	0
128	2
129	0
130	3
131	1
132	4
133	1
134	5
135	2
136	5
137	0
139	0
141	1
143	0
145	0
146	2
147	7
148	159
149	15
150	1
151	0
152	2
153	1
155	0
160	0
161	0
164	0
165	6
166	3
167	1
169	0
176	0
177	0
178	3
179	2
180	2
181	3
182	0
191	0
193	1
194	0
195	0
196	0
203	0
204	1
206	0
210	1
212	0
220	1
221	0
224	2
225	0
238	0
239	730
240	169
241	19
242	1
