Mass Spectrum: Dichlorophen, 2TMS derivative
Formula: C19H26Cl2O2Si2
CAS: 910612-38-3
Molecular weight: 412
m/z	intensity
29	1
31	1
36	1
39	1
42	1
43	9
44	8
45	86
46	6
47	5
51	2
53	1
55	2
57	4
58	4
59	15
60	1
61	2
62	1
63	5
65	3
67	1
69	1
70	2
71	2
73	999
74	86
75	49
76	3
77	4
78	1
79	3
81	1
83	2
85	1
87	1
88	1
89	5
90	1
91	3
93	11
94	1
95	5
96	1
97	1
99	2
101	2
102	2
103	4
104	1
105	4
106	1
107	1
109	1
110	1
111	3
112	1
113	2
114	1
115	3
116	1
117	2
118	1
119	3
121	1
123	2
124	1
125	7
126	2
127	3
128	1
129	1
131	2
133	5
134	1
135	3
136	1
137	2
138	1
139	6
140	1
141	2
143	1
145	1
147	8
148	4
149	5
150	4
151	7
152	8
153	3
154	1
155	3
156	1
157	1
159	1
161	8
162	2
163	7
164	3
165	7
166	2
167	4
168	2
169	11
170	2
171	5
172	1
173	1
175	3
176	3
177	3
178	4
179	3
180	1
181	6
182	2
183	7
184	2
185	8
186	4
187	3
188	1
189	2
191	1
192	1
193	2
194	1
195	11
196	2
197	9
198	3
199	6
200	2
201	2
202	1
203	1
205	1
206	1
207	2
208	1
209	2
210	1
211	8
212	3
213	7
214	3
215	11
216	2
217	3
218	1
219	1
220	1
221	1
222	1
223	2
224	1
225	1
227	1
228	1
229	2
230	1
231	3
232	1
233	4
234	1
235	4
236	1
237	2
238	1
239	3
240	1
241	1
243	1
244	1
245	4
246	1
247	2
248	1
249	4
250	1
251	3
252	1
253	4
254	2
255	2
256	1
257	1
258	1
259	2
260	1
261	1
265	1
266	1
267	1
268	1
269	2
270	1
271	2
272	1
273	6
274	3
275	3
276	1
277	1
279	2
281	2
283	1
287	2
288	1
289	8
290	2
291	3
292	1
293	1
295	1
303	4
304	7
305	3
306	3
307	2
308	1
309	5
310	1
311	4
312	1
313	1
323	1
324	3
325	2
326	2
327	1
328	1
339	2
340	1
341	3
342	2
343	1
347	1
362	1
377	101
378	31
379	45
380	12
381	4
382	1
397	4
398	1
399	3
400	1
401	1
412	149
413	46
414	110
415	32
416	26
417	7
418	2
