Mass Spectrum: N-Acetyl-N'-(1-oxo-2-phenylethyl)urea
Formula: C11H12N2O3
CAS: 91088-09-4
Molecular weight: 220
m/z	intensity
32	53
39	118
41	46
42	33
43	960
44	95
51	55
59	19
60	47
63	58
64	45
65	245
66	38
77	38
87	157
89	60
90	145
91	660
92	152
93	205
118	999
119	497
120	39
129	42
135	15
136	5
161	17
178	202
179	20
220	16
