Mass Spectrum: Etonitazene
Formula: C22H28N4O3
CAS: 911-65-9
Molecular weight: 396
m/z	intensity
42	4
43	1
44	2
56	10
57	2
58	31
59	1
70	4
71	3
72	2
75	1
76	4
77	12
78	4
79	3
84	27
85	3
86	999
87	61
88	2
89	5
90	4
91	3
98	4
99	4
100	3
101	1
102	2
107	92
108	7
129	2
132	2
133	2
135	34
136	3
192	3
193	2
205	3
206	4
207	3
218	2
219	2
220	2
221	3
222	4
234	4
235	3
236	4
245	2
246	7
247	1
248	2
250	3
259	6
264	2
280	3
281	1
282	2
394	2
395	1
396	7
397	1
