Mass Spectrum: Benzamide, N-[4-[(aminoiminomethyl)amino]-1-[[(4-nitrophenyl)amino]carbonyl]butyl]-, (.+/-.)-
Formula: C19H22N6O4
CAS: 911-76-2
Molecular weight: 398
m/z	intensity
12	1
13	4
14	2
15	5
16	5
17	6
18	16
26	6
27	21
28	74
29	9
30	56
31	3
39	91
40	12
41	59
42	86
43	138
44	54
45	6
46	2
49	2
50	33
51	96
52	42
53	30
54	16
55	13
56	18
57	9
58	7
59	50
60	25
61	9
62	18
63	45
64	36
65	315
66	40
67	7
68	37
69	45
70	173
71	11
72	65
73	19
74	11
75	13
76	26
77	470
78	43
79	15
80	67
81	10
82	3
83	18
84	31
85	674
86	150
87	232
88	12
89	4
90	12
91	25
92	216
93	19
94	2
95	9
96	25
97	57
98	30
99	8
100	29
101	6
102	1
103	11
104	17
105	999
106	90
107	17
108	251
109	20
110	26
111	23
112	86
113	280
114	21
115	3
116	2
117	6
118	5
119	5
120	4
121	45
122	88
123	9
124	2
125	2
126	6
127	116
128	10
129	4
130	4
131	2
132	3
133	12
134	28
135	9
136	3
137	5
138	686
139	81
140	12
141	4
142	1
143	2
144	2
145	4
146	9
147	9
148	22
149	7
150	2
151	1
152	3
153	12
154	2
155	12
156	2
157	2
158	1
159	3
160	10
161	23
162	23
163	16
164	9
165	2
167	1
168	3
169	1
170	2
171	2
172	5
173	37
174	13
175	5
176	5
177	3
178	1
179	3
180	1
181	1
183	1
184	1
185	1
186	3
187	6
188	8
189	16
190	10
191	7
192	9
193	2
195	2
196	6
197	2
198	4
199	7
200	13
201	22
202	6
203	6
204	2
205	1
211	1
212	1
213	3
214	4
215	5
216	12
217	11
218	139
219	29
220	4
224	1
225	1
228	1
229	1
230	2
231	10
232	220
233	113
234	177
235	25
236	2
241	1
242	2
243	3
244	4
245	2
246	1
258	2
259	3
260	27
261	21
262	4
263	1
274	1
275	7
276	4
277	1
278	2
284	1
285	1
293	16
294	3
299	1
305	1
307	2
308	1
319	1
321	1
326	1
336	3
337	2
338	4
339	1
351	1
356	2
357	1
368	4
369	1
381	1
398	17
399	9
400	2
