Mass Spectrum: 7-Methylhexahydrocyclopenta[c]pyran-1(3H)-one
Formula: C9H14O2
CAS: 91108-59-7
Molecular weight: 154
m/z	intensity
26	3
27	20
29	25
31	4
38	7
39	92
40	19
41	105
42	18
43	74
46	2
50	9
51	21
52	9
53	71
54	57
55	96
56	18
60	3
65	27
66	29
67	217
68	54
69	64
71	48
72	4
77	44
79	70
80	16
81	175
82	41
83	14
91	19
93	16
94	37
95	46
97	9
98	4
99	999
100	90
101	7
108	18
109	36
111	15
112	121
113	11
125	62
126	17
136	6
139	19
154	20
