Mass Spectrum: p-Menth-8(10)-ene-2,9-diol
Formula: C10H18O2
CAS: 91139-97-8
Molecular weight: 170
m/z	intensity
15	7
16	2
17	46
18	4
26	3
27	63
28	11
29	66
30	5
31	18
37	1
38	4
39	121
40	29
41	442
42	41
43	305
44	18
45	22
46	1
47	2
50	7
51	28
52	11
53	64
54	25
55	244
56	56
57	106
58	90
59	26
60	4
61	3
62	4
63	10
64	6
65	44
66	22
67	219
68	88
69	793
70	73
71	214
72	43
73	8
74	3
75	2
76	2
77	77
78	18
79	164
80	23
81	102
82	137
83	119
84	255
85	232
86	156
87	14
88	1
89	5
90	2
91	156
92	42
93	105
94	43
95	242
96	58
97	150
98	406
99	46
100	7
101	2
102	3
103	16
104	10
105	78
106	19
107	25
108	27
109	158
110	63
111	121
112	12
113	999
114	73
115	27
116	6
117	37
118	8
119	386
120	39
121	18
122	5
123	168
124	52
125	9
126	2
127	37
128	9
129	10
130	2
131	3
132	9
133	30
134	190
135	37
136	7
137	96
138	9
139	3
141	1
142	2
148	4
150	3
151	6
152	75
153	10
154	1
155	1
169	2
170	69
171	9
