Mass Spectrum: 2-Methyl-2,3-epoxyindan-1-one-3-carboxamide
Formula: C11H9NO3
CAS: 91137-48-3
Molecular weight: 203
m/z	intensity
51	520
52	120
53	120
54	20
55	120
61	100
62	430
63	530
64	70
65	100
66	25
73	30
74	200
75	220
76	460
77	999
78	200
79	30
85	40
86	120
87	170
88	460
89	630
90	100
91	30
92	40
101	60
102	250
103	440
104	755
105	550
106	50
113	40
114	70
115	160
116	30
117	60
118	40
119	90
128	20
129	30
130	140
131	210
132	460
133	380
134	40
143	25
144	30
145	120
146	110
147	280
148	90
149	40
158	100
159	320
160	420
161	70
170	30
174	20
175	999
176	120
177	10
186	50
187	30
188	140
189	20
203	590
204	71
205	4
