Mass Spectrum: 2-Pentenoic acid, 3,4,4-trimethyl-, ethyl ester
Formula: C10H18O2
CAS: 91140-23-7
Molecular weight: 170
m/z	intensity
26	15
27	188
28	35
29	347
30	8
31	12
38	15
39	228
40	54
41	424
42	46
43	218
44	7
45	23
49	27
50	10
51	31
52	15
53	94
54	26
55	421
56	97
57	374
58	17
59	82
63	10
65	31
66	15
67	121
68	21
69	137
70	41
71	76
77	26
78	7
79	46
80	11
81	231
82	45
83	204
84	34
85	92
86	12
87	59
91	19
95	49
96	36
97	999
98	89
99	51
100	17
101	27
105	34
109	284
110	38
111	24
112	10
113	30
115	5
119	16
120	12
123	9
124	12
125	614
126	57
127	359
128	33
129	12
134	6
141	7
155	587
156	60
170	173
171	19
