Mass Spectrum: Tetraisopropyl 1,1'-(1,8-naphthylene)bis(1,2,3-triazole-4,5-dicarboxylate)
Formula: C30H34N6O8
CAS: 91165-63-8
Molecular weight: 606
m/z	intensity
15	9
16	1
17	1
18	3
26	2
27	96
28	36
29	7
31	4
37	1
38	4
39	23
40	7
41	179
42	26
43	999
44	32
45	23
51	4
52	2
53	6
54	1
55	6
56	2
57	8
58	4
59	7
60	1
63	4
65	1
67	3
68	2
69	14
70	3
71	3
73	10
74	2
75	5
76	3
77	9
78	1
81	8
82	2
83	3
84	2
85	1
86	1
87	7
88	3
89	2
90	1
93	2
94	1
95	4
96	1
97	2
98	3
99	4
100	3
101	9
102	3
107	1
109	2
110	1
111	3
112	2
113	8
114	7
115	7
121	1
122	1
123	2
124	2
125	16
126	17
127	22
128	3
129	3
131	12
135	2
136	3
137	6
138	7
139	15
140	26
141	5
142	2
149	9
150	6
151	15
152	133
153	66
154	13
155	5
156	2
157	3
158	3
159	3
162	2
163	6
164	48
165	27
166	105
167	37
168	25
169	6
170	1
171	1
173	2
174	2
175	9
176	10
177	22
178	29
179	36
180	34
181	9
182	6
183	2
184	2
185	1
189	6
190	9
191	23
192	49
193	36
194	12
195	5
196	6
197	2
198	2
199	1
200	2
201	4
202	28
203	68
204	82
205	87
206	93
207	50
208	76
209	16
210	5
211	5
212	4
213	2
214	1
215	2
216	3
217	4
218	20
219	46
220	36
221	25
222	10
223	5
224	4
225	2
226	2
227	2
228	1
229	7
230	13
231	40
232	100
233	37
234	54
235	15
236	15
237	26
238	9
239	3
240	17
241	5
242	2
243	3
244	3
245	11
246	17
247	43
248	38
249	98
250	61
251	15
252	18
253	7
254	7
255	3
256	2
257	2
258	60
259	25
260	15
261	7
262	5
263	15
264	10
265	17
266	8
267	3
268	2
269	1
270	1
271	2
272	4
273	11
274	95
275	54
276	120
277	39
278	11
279	6
280	3
281	3
282	10
283	3
284	2
285	3
286	1
287	2
288	1
289	4
290	9
291	38
292	41
293	51
294	23
295	5
296	2
297	1
298	1
299	2
300	2
301	3
302	109
303	31
304	9
305	3
306	2
307	8
308	4
309	12
310	5
311	1
313	1
315	1
316	1
317	5
318	55
319	35
320	25
321	9
322	7
323	2
324	1
325	1
331	1
332	1
333	19
334	10
335	17
336	8
337	10
338	11
339	3
344	1
346	2
347	2
348	2
349	2
350	2
351	9
352	4
353	1
360	2
361	8
362	7
363	3
364	5
365	3
366	3
377	4
378	5
379	3
380	3
388	1
393	8
394	2
404	2
405	4
406	4
407	3
408	1
409	1
420	1
421	4
422	1
435	5
436	2
448	2
449	1
450	1
452	1
463	5
464	2
505	7
506	2
507	2
508	1
519	1
520	3
521	1
547	6
548	2
549	1
591	2
592	1
605	1
606	69
607	25
608	5
