Mass Spectrum: Tetraethyl 1,1'-(1,8-naphthylene)bis(1,2,3-triazole-4,5-dicarboxylate)
Formula: C26H26N6O8
CAS: 91165-62-7
Molecular weight: 550
m/z	intensity
12	1
14	5
15	17
16	3
25	3
26	18
27	170
28	115
29	999
30	21
31	74
32	2
37	1
38	2
39	15
40	3
41	10
42	9
43	27
44	71
45	46
46	17
47	2
50	7
51	12
52	6
53	24
54	2
55	4
56	3
57	6
59	2
61	1
62	5
63	21
64	6
65	4
66	1
67	2
68	4
69	26
70	2
71	2
72	1
73	9
74	11
75	28
76	17
77	36
78	5
79	2
81	2
82	3
83	2
84	1
85	2
86	7
87	17
88	16
89	7
90	3
91	1
93	2
95	3
96	2
97	16
98	5
99	21
100	13
101	26
102	12
103	8
104	1
109	2
110	2
111	3
112	9
113	27
114	21
115	18
116	3
117	1
119	2
122	1
123	3
124	8
125	86
126	52
127	68
128	9
129	1
130	2
131	3
135	1
136	2
137	18
138	29
139	45
140	95
141	23
142	4
143	9
147	1
148	2
149	8
150	18
151	48
152	470
153	156
154	25
155	9
156	3
157	1
158	1
159	4
161	1
162	9
163	15
164	175
165	65
166	396
167	102
168	48
169	10
170	3
171	10
172	1
173	1
174	4
175	36
176	28
177	49
178	56
179	96
180	70
181	22
182	8
183	6
184	4
185	1
186	2
187	3
188	4
189	14
190	40
191	59
192	97
193	34
194	27
195	12
196	13
197	3
198	2
199	40
200	9
201	5
202	66
203	93
204	154
205	91
206	71
207	57
208	67
209	9
210	5
211	3
212	2
214	2
215	2
216	11
217	9
218	94
219	118
220	75
221	29
222	9
223	7
224	4
225	3
226	3
227	3
228	3
229	28
230	27
231	150
232	63
233	59
234	65
235	43
236	17
237	22
238	8
239	9
240	9
241	2
242	3
243	2
244	5
245	9
246	30
247	67
248	51
249	88
250	15
251	10
252	3
253	4
254	2
255	3
256	3
257	9
258	172
259	68
260	49
261	9
262	15
263	11
264	29
265	9
266	5
267	5
268	11
269	8
270	2
271	4
272	2
273	8
274	142
275	38
276	95
277	29
278	25
279	8
280	15
281	8
282	3
283	3
284	2
285	15
286	8
287	5
288	6
289	5
290	7
291	16
292	17
293	30
294	4
295	6
296	4
297	3
298	2
299	2
300	2
301	5
302	84
303	51
304	43
305	48
306	3
307	4
308	4
309	2
310	9
311	2
312	3
314	2
315	3
316	3
317	5
318	8
319	33
320	58
321	12
322	9
323	4
324	4
325	4
326	2
328	1
329	2
330	13
331	6
332	10
333	21
334	3
335	3
336	6
337	3
338	4
340	2
341	3
342	2
343	2
344	2
345	3
346	19
347	12
348	17
349	61
350	9
351	11
352	3
353	1
354	1
356	1
357	2
358	1
359	2
360	1
361	2
362	3
363	2
364	8
365	25
366	2
367	2
368	1
369	2
370	2
371	1
372	2
373	2
374	2
375	5
376	72
377	9
378	8
379	2
380	1
381	2
383	1
384	1
386	1
389	3
390	2
391	3
392	10
393	25
394	9
395	5
396	1
397	1
399	1
401	1
402	1
403	2
404	7
405	6
406	3
407	2
410	1
412	1
413	1
415	1
417	1
418	1
419	2
420	2
421	101
422	9
423	6
424	3
441	1
446	1
448	17
449	6
450	4
451	2
466	2
475	1
476	1
477	12
478	8
494	8
495	2
497	1
505	5
506	3
522	9
523	6
524	1
535	1
549	3
550	249
551	68
552	10
553	1
