Mass Spectrum: 8-(2-Acetyloxiran-2-yl)-6,6-dimethylocta-3,4-dien-2-one
Formula: C14H20O3
CAS: 91186-38-8
Molecular weight: 236
m/z	intensity
26	1
27	15
28	5
29	10
31	1
38	2
39	21
40	3
41	40
42	5
43	999
44	10
45	3
50	2
51	7
52	4
53	16
54	4
55	21
56	3
57	5
58	1
59	1
61	0
62	0
63	3
64	1
65	8
66	2
67	11
68	1
69	26
70	3
71	4
72	0
73	0
74	0
75	0
77	21
78	5
79	31
80	21
81	24
82	5
83	6
84	2
85	7
86	0
87	3
88	0
89	0
90	0
91	20
92	4
93	14
94	4
95	20
96	6
97	7
98	3
99	6
100	1
101	3
103	1
104	0
105	12
106	3
107	13
108	5
109	19
110	3
111	3
112	4
113	8
114	1
115	2
116	0
117	3
118	1
119	10
120	2
121	8
122	8
123	63
124	7
125	6
126	1
127	0
128	1
129	0
130	0
131	2
132	1
133	12
134	3
135	8
136	6
137	13
138	3
139	5
140	0
141	0
142	0
143	1
145	2
146	1
147	4
148	2
149	4
150	2
151	8
152	4
153	2
155	0
156	0
157	1
158	0
159	1
160	0
161	8
162	1
163	10
164	1
165	4
166	1
167	0
173	0
175	5
176	2
177	1
178	0
179	3
180	1
181	0
183	0
189	0
190	0
191	3
192	0
193	6
194	1
203	3
204	0
205	3
206	1
207	0
219	0
221	10
222	1
236	1
