Mass Spectrum: 2-Amino-5H-pyrrolo[3,4-d]pyrimidine-4,7(3H,7H)-dione
Formula: C6H6N4O2
CAS: 91184-34-8
Molecular weight: 166
m/z	intensity
41	93
42	189
43	942
44	999
45	20
46	21
49	10
51	47
52	184
53	184
54	82
55	48
57	9
65	11
66	29
67	62
68	166
69	158
70	77
80	45
82	29
83	56
84	27
93	9
95	136
96	60
110	9
111	125
123	135
124	50
125	36
137	10
138	180
166	242
167	14
