Mass Spectrum: Ajmalan-16-carboxylic acid, 17-(acetyloxy)-19,20-didehydro-, methyl ester, (2.alpha.,16R,17S,19E)-
Formula: C24H28N2O4
CAS: 912-27-6
Molecular weight: 408
m/z	intensity
41	90
42	80
43	999
44	20
45	10
51	20
52	10
53	60
54	20
55	20
56	10
59	30
65	30
66	10
67	10
68	20
77	100
78	10
79	60
80	10
81	10
89	10
91	40
93	20
102	10
103	20
105	10
106	10
107	40
108	50
109	10
110	10
115	60
116	20
117	30
118	10
120	20
127	10
128	40
129	20
130	40
131	80
132	30
133	10
134	20
135	30
136	20
137	20
139	10
140	10
141	10
142	20
144	520
145	170
146	20
149	10
154	20
155	20
156	60
157	460
158	150
159	70
160	10
162	30
163	10
164	30
165	10
166	80
167	60
168	70
169	40
170	140
171	60
172	40
173	10
176	10
178	10
179	10
180	20
181	50
182	60
183	70
184	40
185	10
190	200
191	30
192	30
193	10
194	10
195	10
196	20
197	40
198	20
204	10
208	20
218	10
222	70
223	10
232	10
246	10
251	10
263	30
264	100
265	10
289	30
290	10
291	20
305	10
306	20
333	20
349	160
350	30
365	30
366	10
377	10
407	20
408	660
409	180
410	20
