Mass Spectrum: Hexanedioic acid, 2-methyl-, diethyl ester
Formula: C11H20O4
CAS: 91214-21-0
Molecular weight: 216
m/z	intensity
26	20
27	136
28	77
29	774
30	22
31	44
32	2
39	22
40	10
41	299
42	171
43	195
44	17
45	203
46	8
47	5
49	4
51	2
52	1
53	14
54	15
55	358
56	130
57	147
58	12
59	48
60	111
61	76
62	2
63	1
65	3
66	5
67	32
68	252
69	874
70	134
71	84
72	16
73	571
74	431
75	52
76	7
77	10
78	4
79	6
80	17
81	9
82	33
83	51
84	12
85	40
86	15
87	131
88	224
89	14
90	3
91	2
92	4
93	6
94	2
95	16
96	101
97	655
98	111
99	47
100	37
101	203
102	999
103	58
104	7
105	23
106	2
109	6
110	2
111	11
112	4
113	209
114	78
115	553
116	94
117	10
118	8
119	6
120	7
121	2
123	21
124	52
125	162
126	23
127	26
128	127
129	497
130	38
131	5
132	9
133	1
134	1
135	3
136	0
137	1
138	7
139	2
140	3
141	20
142	772
143	746
144	91
145	20
146	13
147	1
153	2
155	5
156	1
157	6
162	2
167	1
168	1
169	4
170	100
171	922
172	98
173	15
174	17
175	1
188	12
189	2
201	0
216	3
217	1
