Mass Spectrum: Cyclohexanone, 3-(4-hydroxybutyl)-2-methyl-
Formula: C11H20O2
CAS: 91212-98-5
Molecular weight: 184
m/z	intensity
26	10
27	147
28	20
29	175
30	6
31	131
38	6
39	173
40	37
41	437
42	92
43	133
44	23
45	27
50	6
51	20
52	13
53	106
54	94
55	592
56	113
57	121
58	16
59	6
60	4
63	6
65	27
66	21
67	275
68	144
69	180
70	79
71	57
72	23
73	13
77	31
78	14
79	122
80	30
81	207
82	114
83	174
84	107
85	40
86	7
91	34
92	14
93	115
94	84
95	286
96	93
97	164
98	34
99	18
105	15
106	10
107	53
108	17
109	75
110	75
111	999
112	178
113	26
114	6
115	5
119	18
120	7
121	12
122	41
123	41
124	20
125	27
126	6
127	5
132	0
133	14
134	1
135	9
136	0
137	69
138	15
139	3
140	8
141	55
142	6
151	11
152	1
165	4
166	22
167	5
168	2
169	10
170	1
183	2
184	56
185	9
186	1
