Mass Spectrum: N-3-Diethylaminopropylsuccinimide
Formula: C11H20N2O2
CAS: 91211-71-1
Molecular weight: 212
m/z	intensity
41	91
42	116
43	25
44	63
45	6
46	0
49	0
51	0
52	1
53	3
54	20
55	107
56	131
57	33
58	183
59	17
60	0
64	0
66	0
67	3
68	7
69	7
70	21
71	14
72	100
73	17
74	2
77	2
78	3
80	2
81	1
82	9
83	4
84	62
86	999
87	63
88	3
92	0
93	0
94	0
95	0
96	2
97	3
98	11
99	4
100	10
101	2
110	2
111	2
112	76
113	8
114	7
115	12
116	0
125	1
126	1
127	1
128	1
129	0
132	0
135	1
138	1
140	150
141	14
142	1
153	1
154	0
155	2
156	1
157	3
158	1
172	14
173	2
181	1
182	0
183	10
184	1
185	0
195	2
197	57
198	6
199	0
201	1
209	0
210	0
211	9
212	61
213	11
214	3
215	0
