Mass Spectrum: 3-Nonenoic acid, ethyl ester
Formula: C11H20O2
CAS: 91213-30-8
Molecular weight: 184
m/z	intensity
26	17
27	258
28	24
29	999
30	24
31	9
38	8
39	210
40	37
41	617
42	107
43	207
44	9
45	69
50	7
51	22
52	17
53	121
54	346
55	822
56	131
57	148
58	20
59	14
60	85
61	98
62	4
63	7
64	2
65	24
66	18
67	176
68	108
69	891
70	136
71	97
72	10
73	69
74	22
75	5
76	2
77	20
78	6
79	34
80	19
81	139
82	60
83	59
84	83
85	60
86	20
87	40
88	457
89	43
90	4
91	12
92	4
93	23
94	41
95	171
96	541
97	159
98	17
99	72
100	29
101	118
102	26
103	4
104	4
105	7
106	3
107	12
108	7
109	54
110	115
111	179
112	19
113	43
114	19
115	31
116	13
117	3
119	6
120	12
121	7
122	3
123	21
124	7
125	9
126	2
127	44
128	62
129	19
130	6
131	2
133	3
135	3
137	20
138	252
139	81
140	10
141	39
142	25
143	8
154	3
155	23
156	7
169	5
170	3
183	3
184	61
185	9
186	2
