Mass Spectrum: Pyridine, 4-(methylseleno)-
Formula: C6H7NSe
CAS: 91238-52-7
Molecular weight: 173
m/z	intensity
24	9
25	40
26	69
27	32
30	7
31	15
32	5
37	62
38	56
39	27
46	2
47	3
48	10
49	80
50	355
51	999
52	182
53	21
54	4
55	5
60	1
61	7
62	5
63	18
64	9
65	84
66	20
67	5
68	4
69	2
70	1
71	5
73	13
74	5
75	16
76	33
77	16
78	600
79	145
80	190
81	20
82	13
83	1
84	8
85	14
86	23
87	5
89	9
90	23
91	63
92	533
93	186
94	61
95	65
96	27
97	12
98	1
101	21
102	11
103	24
104	18
105	87
106	7
107	44
108	4
109	6
113	2
114	5
115	22
116	11
117	31
118	5
119	10
120	2
125	4
126	11
127	45
128	41
129	73
130	46
131	117
132	10
133	26
134	1
140	0
142	7
143	6
144	2
145	13
146	0
147	5
152	3
154	35
155	30
156	72
157	0
158	155
159	14
160	26
167	15
168	6
169	176
170	150
171	328
172	44
173	747
174	79
175	124
176	6
