Mass Spectrum: Pent-2-ene-1,5-dione, 1-(4-chlorophenyl)-3,5-diphenyl-
Formula: C23H17ClO2
CAS: 91232-58-5
Molecular weight: 360
m/z	intensity
33	5
34	1
35	1
36	6
37	1
38	5
39	16
40	21
41	4
42	1
43	4
44	12
45	1
50	31
51	74
52	7
53	2
55	3
57	2
61	2
62	3
63	14
64	3
65	13
66	1
67	0
69	2
70	0
71	1
74	15
75	66
76	49
77	371
78	28
79	1
81	0
82	1
83	1
84	1
85	5
86	1
87	4
88	4
89	16
90	5
91	27
92	3
93	0
94	2
95	2
97	1
99	2
100	1
101	5
102	10
105	999
106	74
107	5
109	4
111	204
112	17
113	65
114	13
115	91
116	14
117	2
118	0
119	3
120	0
122	0
123	1
125	9
126	3
127	5
128	2
129	0
131	3
132	0
135	1
139	647
140	62
141	187
142	14
143	8
144	2
149	9
150	3
151	5
152	6
153	4
154	1
163	4
164	2
165	9
166	1
171	7
172	2
176	3
177	3
178	9
179	2
187	1
188	2
189	14
190	7
191	23
192	15
193	10
194	1
200	1
201	3
202	17
203	17
204	51
205	19
206	4
207	9
208	2
212	0
218	2
219	7
220	35
221	130
222	21
223	2
225	2
226	1
227	3
228	0
229	1
231	1
233	0
235	2
236	0
238	21
239	7
240	7
241	6
243	1
248	0
249	5
250	0
252	1
254	17
255	61
256	15
257	19
258	3
265	1
266	0
267	3
269	1
276	0
277	0
278	1
279	1
281	1
283	5
284	0
285	1
307	0
308	2
309	2
314	0
315	1
325	0
326	1
332	1
340	1
341	2
343	47
344	15
345	14
346	4
357	1
358	3
359	4
360	53
361	12
362	16
363	3
