Mass Spectrum: Cyclohexanemethanol, 5-t-butyl-2-hydroxy-
Formula: C11H22O2
CAS: 91243-09-3
Molecular weight: 186
m/z	intensity
27	63
28	1
29	170
30	9
31	48
39	71
40	16
41	379
42	32
43	181
44	26
45	19
51	10
52	9
53	53
54	31
55	295
56	162
57	999
58	56
59	18
65	20
67	317
68	117
69	185
70	85
71	53
72	13
73	16
74	14
77	65
78	25
79	268
80	213
81	430
82	98
83	251
84	81
85	27
86	7
87	15
88	7
91	70
92	36
93	432
94	619
95	269
96	47
97	72
98	18
99	15
100	46
101	9
105	13
106	12
107	119
108	30
109	237
110	120
111	432
112	147
113	40
115	7
119	9
121	18
122	22
123	32
124	36
125	28
126	13
127	28
128	7
129	63
130	10
135	151
136	28
137	213
138	43
139	12
140	24
141	8
149	19
150	100
151	32
152	7
153	31
154	3
167	7
168	38
169	3
184	7
185	6
186	8
187	1
