Mass Spectrum: Pentenal, 2-[(t-butoxycarbonyl)amimo]-4-methyl-
Formula: C11H21NO3
CAS: 91254-81-8
Molecular weight: 215
m/z	intensity
25	0
26	7
27	60
28	23
30	246
31	39
33	3
36	3
37	3
38	11
39	83
40	20
41	340
42	58
43	147
44	200
45	15
50	4
51	7
52	1
53	10
54	4
55	54
56	84
57	999
58	60
59	303
60	13
62	3
67	3
68	2
69	22
70	19
71	2
72	6
73	8
74	54
75	4
79	1
81	14
82	4
83	13
84	14
85	5
86	510
87	30
88	39
89	2
95	2
97	4
98	5
99	7
100	9
102	2
103	11
107	0
109	0
111	1
112	20
116	11
117	1
119	0
126	2
129	1
130	327
131	38
132	2
141	0
142	29
143	1
144	7
158	1
171	0
186	68
187	5
