Mass Spectrum: 1(2H)-Naphthalenone, octahydro-8a-methyl-
Formula: C11H18O
CAS: 91280-39-6
Molecular weight: 166
m/z	intensity
25	198
26	62
27	146
31	12
38	10
39	245
40	63
41	486
42	71
43	90
45	36
47	10
50	14
51	50
52	34
53	198
54	145
55	346
56	61
57	31
58	10
59	10
63	12
65	66
66	62
67	509
68	341
69	162
70	40
71	43
72	29
73	14
75	12
77	102
78	32
79	170
80	78
81	572
82	247
83	72
84	190
85	71
86	22
91	125
92	41
93	154
94	108
95	723
96	159
97	182
98	32
99	10
105	52
106	36
107	91
108	152
109	245
110	162
111	999
112	94
113	9
115	12
119	48
120	33
121	42
122	255
123	136
124	601
125	78
126	9
133	84
134	25
135	59
136	17
137	71
138	27
147	14
148	90
149	20
151	183
152	38
162	9
165	16
166	328
167	45
168	4
