Mass Spectrum: 2-(Diethylamino)-3-methylcyclopropenethione
Formula: C8H13NS
CAS: 91295-98-6
Molecular weight: 155
m/z	intensity
32	90
39	40
45	50
71	100
83	60
98	999
126	390
155	630
