Mass Spectrum: trans-2,2-Dimethyl-4-heptenal
Formula: C9H16O
CAS: 91296-58-1
Molecular weight: 140
m/z	intensity
15	20
18	9
26	22
27	245
28	19
29	208
31	7
38	30
39	310
40	67
41	999
42	88
43	250
44	18
45	9
50	16
51	48
52	18
53	126
54	55
55	469
56	440
57	275
58	13
63	9
65	37
66	15
67	114
68	9
69	686
70	116
71	30
72	296
73	20
77	39
79	38
81	46
82	19
83	43
84	25
85	21
91	21
92	14
93	46
94	7
95	21
96	7
97	72
98	17
107	21
111	99
112	213
113	22
122	10
125	54
140	15
