Mass Spectrum: 6-Bromohexanoic acid, 2,2-dimethylpropyl ester
Formula: C11H21BrO2
CAS: 91304-02-8
Molecular weight: 264
m/z	intensity
25	4
26	28
27	150
28	28
29	203
30	12
31	14
34	1
35	2
36	12
37	6
38	16
39	162
40	40
41	628
42	178
43	573
44	33
45	17
48	8
49	3
50	9
51	13
52	8
53	52
54	33
55	343
56	180
57	999
58	36
59	8
60	64
61	4
62	2
63	2
65	6
66	5
67	33
68	31
69	801
70	444
71	834
72	40
73	28
74	83
75	4
77	2
79	14
80	14
81	11
82	14
83	6
84	6
85	10
86	3
87	63
88	3
93	8
94	2
95	8
96	10
97	106
98	14
99	13
100	6
101	18
105	2
106	2
107	21
108	3
109	20
113	4
114	23
115	64
116	4
119	2
121	3
123	2
127	1
128	2
129	17
130	82
131	8
132	2
134	2
135	4
137	2
148	3
149	12
150	3
151	11
155	10
156	1
169	2
170	1
176	2
177	234
178	15
179	216
180	13
194	18
195	4
196	17
197	4
208	5
209	56
210	12
211	56
212	4
249	3
251	3
