Mass Spectrum: 2-Amino-3,5-dibromo-2'-nitrobiphenyl
Formula: C12H8Br2N2O2
CAS: 91331-00-9
Molecular weight: 370
m/z	intensity
41	34
42	4
43	18
44	95
45	1
46	7
47	9
49	83
50	130
51	182
52	148
53	32
55	62
56	79
57	17
60	2
61	8
62	171
63	287
64	87
65	94
66	7
67	5
69	128
71	0
74	123
75	120
76	195
77	172
78	129
79	1
83	999
84	19
85	9
86	132
87	102
88	76
89	70
90	39
91	4
92	118
94	3
95	3
96	6
97	8
98	51
99	37
100	31
101	42
102	42
104	72
105	16
106	23
108	30
109	6
110	45
111	44
112	14
113	117
114	96
115	57
116	30
117	29
118	2
119	20
120	5
122	75
123	81
124	53
125	22
126	87
127	94
128	53
129	37
130	27
131	20
132	47
133	17
134	12
135	8
137	124
138	169
139	271
140	137
141	45
142	9
143	14
144	11
145	15
146	14
147	5
148	2
150	25
151	5
152	39
153	50
154	101
155	98
156	67
157	36
158	2
159	1
162	30
164	316
165	491
166	415
167	56
168	25
169	33
170	4
172	4
174	1
175	1
177	1
178	2
179	5
180	5
181	6
182	19
183	27
184	86
185	16
186	2
187	1
193	7
194	16
195	46
196	21
205	3
206	1
208	5
209	1
211	5
212	17
217	19
218	8
219	17
220	7
222	1
229	3
231	8
232	9
233	7
234	12
235	1
236	21
238	30
240	11
242	6
243	3
244	63
245	378
246	6
247	471
248	55
249	2
250	1
260	1
261	14
262	2
263	25
264	14
265	1
266	17
268	7
274	6
275	29
276	9
277	30
291	9
292	2
293	12
308	8
310	14
311	2
312	8
323	36
324	55
325	88
326	118
327	52
328	60
329	4
336	55
338	111
340	58
341	2
353	166
355	373
357	227
358	18
370	359
372	643
374	411
375	40
