Mass Spectrum: 2-Isopropyl-5-methyl-1-heptanol
Formula: C11H24O
CAS: 91337-07-4
Molecular weight: 172
m/z	intensity
15	2
26	2
27	81
28	13
29	167
30	5
31	52
32	1
38	2
39	74
40	13
41	419
42	66
43	783
44	31
45	39
50	1
51	6
52	3
53	36
54	23
55	556
56	264
57	999
58	48
59	24
60	1
61	1
63	1
65	7
66	3
67	37
68	25
69	742
70	738
71	812
72	45
73	18
75	2
77	6
78	1
79	8
80	5
81	35
82	34
83	307
84	301
85	673
86	53
87	7
91	2
93	2
95	18
96	19
97	169
98	61
99	112
100	9
101	1
105	1
109	7
110	19
111	129
112	27
113	4
115	56
116	4
123	3
124	14
125	188
126	40
127	4
135	6
137	2
139	6
140	24
141	56
142	6
143	3
154	34
155	5
172	1
