Mass Spectrum: 3-Chloropropionic acid, 2-ethylhexyl ester
Formula: C11H21ClO2
CAS: 91369-31-2
Molecular weight: 220
m/z	intensity
22	2
25	2
26	17
27	73
28	19
29	54
30	2
31	4
35	7
36	48
37	2
38	15
39	44
40	11
41	186
42	62
43	142
44	6
45	4
49	4
50	10
51	15
52	26
53	23
54	21
55	291
56	211
57	510
58	27
59	4
61	2
62	6
63	189
64	8
65	62
66	4
67	22
68	25
69	131
70	999
71	147
72	13
73	20
74	2
75	3
76	1
77	4
78	7
79	47
80	4
81	12
82	50
83	321
84	178
85	16
86	4
87	87
88	5
89	3
90	4
91	467
92	20
93	149
94	6
95	6
96	3
97	34
98	34
99	13
100	2
101	3
104	2
105	2
106	1
108	6
109	77
110	5
111	25
112	242
113	28
114	1
119	6
120	6
121	24
122	119
123	26
124	40
125	6
127	4
128	2
129	4
133	2
134	25
135	3
136	9
137	1
139	3
147	4
148	4
149	2
150	2
157	4
163	9
164	1
165	2
173	3
177	3
187	1
189	1
191	4
193	2
