Mass Spectrum: 3-Chloropropanoic acid, 2-octyl ester
Formula: C11H21ClO2
CAS: 91369-32-3
Molecular weight: 220
m/z	intensity
25	4
26	22
27	105
28	12
29	75
30	2
31	2
35	6
36	41
37	2
38	13
39	78
40	16
41	231
42	103
43	140
44	15
45	18
46	1
49	4
50	11
51	19
52	24
53	33
54	35
55	316
56	235
57	162
58	17
59	3
61	3
62	8
63	216
64	8
65	69
66	9
67	50
68	68
69	162
70	346
71	115
72	15
73	26
74	2
75	2
76	2
77	25
78	11
79	49
80	6
81	43
82	55
83	227
84	137
85	23
86	2
89	3
90	3
91	999
92	42
93	328
94	12
95	19
96	4
97	73
98	10
99	66
100	4
101	2
103	1
104	1
105	4
106	68
107	17
108	30
109	64
110	20
111	19
112	316
113	106
114	10
115	5
117	1
119	6
120	2
121	2
122	2
123	1
124	1
127	2
128	2
129	14
130	1
133	4
134	4
135	278
136	18
137	89
138	5
139	2
141	7
147	2
149	2
150	6
151	1
152	2
158	1
159	1
160	1
163	4
165	1
176	4
177	2
191	2
193	2
