Mass Spectrum: 1-Hexanol, 4-methyl-, acetate
Formula: C9H18O2
CAS: 91367-59-8
Molecular weight: 158
m/z	intensity
25	0
26	5
27	82
28	4
29	161
30	3
31	15
36	0
37	1
38	2
39	66
40	13
41	375
42	138
43	851
44	25
45	17
49	0
50	1
51	3
52	2
53	23
54	14
55	362
56	328
57	399
58	23
59	10
60	8
61	394
62	9
63	4
64	1
65	3
66	2
67	38
68	40
69	554
70	999
71	111
72	18
73	86
74	13
75	4
76	1
77	2
78	0
79	3
80	1
81	12
82	5
83	68
84	7
85	6
86	3
87	41
88	9
89	0
91	1
92	0
93	1
95	4
96	9
97	45
98	89
99	9
100	1
101	67
102	6
103	0
105	2
107	0
109	1
110	0
111	5
112	3
113	7
114	4
115	18
116	1
117	0
119	0
123	0
124	0
125	1
127	1
128	0
129	1
130	1
131	1
140	0
142	1
143	0
159	2
160	0
