Mass Spectrum: 6-Acetoxy-1,4,8,11-tetrathiacyclotetradecane
Formula: C12H22O2S4
CAS: 91375-64-3
Molecular weight: 326
m/z	intensity
43	590
60	120
61	300
73	530
74	100
106	999
107	360
133	480
134	310
135	100
164	110
266	40
267	10
326	820
327	170
328	160
