Mass Spectrum: 6-Bromo-1,4,8,11-tetrathiacyclotetradecane
Formula: C10H19BrS4
CAS: 91375-66-5
Molecular weight: 346
m/z	intensity
60	230
61	999
73	820
74	210
106	650
107	320
119	430
133	730
134	380
135	250
183	140
267	130
303	320
346	60
347	10
348	60
