Mass Spectrum: 6-Benzoyloxy-1,4,8,11-tetrathiacyclotetradecane
Formula: C17H24O2S4
CAS: 91375-65-4
Molecular weight: 388
m/z	intensity
60	90
61	40
73	90
74	90
105	410
106	999
107	290
122	240
133	540
134	740
135	260
266	480
267	60
388	800
389	200
390	160
