Mass Spectrum: N'-(1-(2-Thienyl)ethylidene)isonicotinohydrazide
Formula: C12H11N3OS
CAS: 91397-02-3
Molecular weight: 245
m/z	intensity
26	44
27	58
28	117
30	16
37	21
38	63
39	336
40	45
41	57
42	77
43	38
45	266
46	8
47	15
49	30
50	294
51	999
52	162
53	75
54	93
55	22
56	18
57	63
58	102
59	79
60	17
61	10
62	18
63	39
64	28
65	187
66	224
67	56
68	13
69	123
70	33
71	143
72	20
73	19
74	15
75	30
76	32
77	146
78	994
79	449
80	36
81	30
82	39
83	60
84	135
85	56
86	18
91	30
92	13
93	22
95	68
96	25
97	73
98	486
99	37
100	23
104	33
105	13
106	800
107	94
108	30
109	402
110	384
111	97
112	192
113	16
114	13
119	17
120	9
121	4
122	32
123	18
124	62
125	37
127	26
135	197
136	40
137	11
138	8
139	262
140	23
141	23
162	26
167	80
168	6
169	4
184	3
186	4
187	31
188	22
201	9
215	16
216	20
228	22
229	18
230	435
231	73
232	27
245	672
246	100
247	41
