Mass Spectrum: N-(4-Bromo-1-naphthyl)acetamide
Formula: C12H10BrNO
CAS: 91394-66-0
Molecular weight: 263
m/z	intensity
41	11
42	54
43	999
44	24
45	1
49	6
50	48
51	44
52	22
53	1
55	1
56	7
57	22
58	1
61	23
62	80
63	158
64	35
65	24
66	1
70	35
73	9
74	52
75	48
76	29
77	12
78	1
85	15
86	44
87	70
88	92
89	48
90	14
91	1
98	14
99	12
100	8
101	4
102	7
110	6
111	8
112	11
113	179
114	269
115	435
116	80
117	8
119	1
125	6
126	32
127	9
128	4
138	6
139	11
140	148
141	50
142	86
143	15
154	6
155	3
169	4
183	5
193	75
194	7
195	72
196	5
221	567
222	87
223	561
224	68
225	3
263	261
264	49
265	260
266	46
267	2
