Mass Spectrum: N-Benzoyl-dl-3,4-dehydroproline amide
Formula: C12H12N2O2
CAS: 91392-67-5
Molecular weight: 216
m/z	intensity
41	32
42	5
44	139
45	2
47	6
49	33
50	47
51	158
52	13
53	5
54	0
55	4
56	2
57	2
58	1
62	1
63	5
64	2
65	3
66	0
67	23
68	27
69	2
70	1
71	1
72	0
73	1
74	12
75	4
76	7
77	480
78	28
79	1
81	0
82	0
88	2
89	2
91	3
92	0
93	0
94	2
95	0
96	1
97	1
101	0
103	1
105	999
106	69
107	1
110	1
111	1
115	6
117	3
121	0
122	0
124	0
127	1
128	0
129	0
139	2
141	0
143	4
144	0
146	0
149	0
156	0
170	0
171	4
172	604
173	96
174	6
200	0
206	1
216	3
217	2
