Mass Spectrum: But-2-ynoic acid, 1,7,7-trimethyl-bicyclo[2.2.1]hept-2-yl ester
Formula: C14H20O2
CAS: 91404-80-7
Molecular weight: 220
m/z	intensity
26	2
27	67
28	7
29	78
30	0
31	1
37	7
38	20
39	177
40	22
41	289
42	17
43	100
44	3
45	5
47	0
50	3
51	15
52	7
53	79
54	12
55	184
56	12
57	41
58	1
59	6
60	0
62	0
63	4
64	1
65	26
66	20
67	999
68	61
69	242
70	15
71	16
72	3
73	0
75	0
76	1
77	82
78	15
79	95
80	118
81	104
82	24
83	52
84	7
85	6
86	0
87	0
89	1
90	1
91	47
92	90
93	333
94	54
95	589
96	48
97	12
98	1
99	1
103	1
104	0
105	15
106	4
107	49
108	127
109	225
110	123
111	20
112	1
113	0
115	0
117	1
119	6
120	3
121	202
122	20
123	10
124	1
125	3
131	2
132	2
133	1
134	27
135	26
136	372
137	52
138	5
139	1
141	0
142	0
145	0
147	1
149	6
150	6
151	6
152	4
153	31
154	10
155	0
159	1
161	0
163	1
164	1
165	0
175	1
177	11
178	1
179	0
187	0
191	0
192	0
205	3
206	0
220	35
221	5
