Mass Spectrum: Acetic acid, 1,3,7-trimethylocta-2,6-dienyl ester
Formula: C13H22O2
CAS: 91418-25-6
Molecular weight: 210
m/z	intensity
26	5
27	114
28	10
29	90
30	2
31	7
37	2
38	7
39	192
40	44
41	705
42	55
43	688
44	21
45	86
46	1
50	12
51	42
52	22
53	148
54	33
55	111
56	26
57	39
58	4
59	9
60	56
61	6
62	4
63	16
64	5
65	58
66	30
67	292
68	74
69	999
70	73
71	17
72	2
73	2
74	2
75	4
76	3
77	97
78	25
79	194
80	46
81	166
82	435
83	62
84	28
85	41
86	8
87	5
89	4
90	2
91	146
92	38
93	186
94	259
95	102
96	17
97	13
98	18
99	86
100	10
101	3
102	2
103	9
104	4
105	70
106	87
107	676
108	94
109	45
110	16
111	12
112	3
113	8
115	7
116	3
117	8
118	2
119	55
120	15
121	99
122	26
123	35
124	5
125	5
126	3
127	3
128	3
133	10
134	34
135	264
136	50
137	7
138	2
139	3
140	2
150	182
151	49
152	8
153	8
154	5
155	1
166	1
167	2
168	7
169	1
170	0
176	1
194	1
195	1
210	1
