Mass Spectrum: 2(3H)-Naphthalenone, 4,4a,5,6,7,8-hexahydro-4,4a-dimethyl-6-(1-methylethenyl)-
Formula: C15H22O
CAS: 91416-23-8
Molecular weight: 218
m/z	intensity
26	69
27	202
28	267
29	243
30	21
32	8
33	38
34	101
39	578
40	111
41	999
42	89
43	257
44	38
50	34
51	155
52	116
53	408
54	31
55	446
56	8
57	45
58	49
60	41
63	36
65	279
66	112
67	347
68	94
69	338
71	35
73	48
74	17
75	85
77	510
78	159
79	655
80	469
81	218
82	50
83	40
89	24
91	693
92	147
93	476
94	83
95	253
96	43
97	48
102	63
103	54
104	39
105	504
106	191
107	388
108	576
109	190
115	82
116	36
117	99
118	50
119	358
120	225
121	693
122	156
123	64
128	22
129	32
131	104
132	59
133	488
134	210
135	231
136	132
137	43
139	43
141	62
142	62
143	35
145	75
146	401
147	665
148	294
149	131
150	100
157	31
159	39
160	34
161	422
162	244
163	49
172	76
173	24
174	36
175	387
176	247
177	67
185	66
186	45
187	71
189	70
190	317
191	34
200	159
201	53
202	23
203	309
204	48
218	223
219	31
