Mass Spectrum: Ethyl geranyl acetate
Formula: C14H24O2
CAS: 91418-26-7
Molecular weight: 224
m/z	intensity
41	167
43	999
44	20
45	13
50	1
51	7
52	4
53	58
55	437
56	21
57	45
58	20
59	8
61	2
63	2
65	15
66	5
67	91
68	20
69	52
70	5
71	46
72	9
73	18
74	1
77	14
78	2
79	30
80	13
81	136
82	71
83	370
84	40
85	62
86	8
87	4
89	4
91	17
92	7
93	95
94	32
95	129
96	26
97	36
98	8
99	73
100	6
101	16
102	1
103	1
105	12
106	4
107	131
108	64
109	137
110	16
111	40
112	8
113	63
114	5
115	3
117	2
119	16
120	5
121	95
122	21
123	150
124	26
125	228
126	29
127	58
128	11
129	4
131	2
132	1
133	33
134	8
135	55
136	20
137	48
138	30
139	64
140	8
141	16
142	2
143	3
145	2
146	0
147	14
148	11
149	53
150	159
151	276
152	35
153	17
154	3
155	7
156	1
157	15
158	1
159	4
161	34
162	5
163	16
164	4
165	20
166	5
167	11
168	2
169	10
170	0
171	3
173	4
175	17
176	5
177	17
178	3
179	31
180	5
181	7
182	1
183	4
185	2
187	3
189	27
190	31
191	18
192	27
193	16
194	7
195	11
196	1
197	2
199	1
201	1
203	4
205	9
206	8
207	66
208	76
209	182
210	11
211	7
212	0
221	6
222	24
223	9
224	63
225	9
226	2
