Mass Spectrum: 1,1,1,3,3,3-Hexafluoro-2-(1-methoxycarbonyl)-ethoxyiminopropane
Formula: C7H7F6NO3
CAS: 91411-95-9
Molecular weight: 267
m/z	intensity
41	134
42	45
43	825
44	165
45	76
47	167
48	3
55	203
56	73
57	93
59	999
60	65
67	45
69	946
70	9
87	487
88	43
89	3
161	35
164	39
208	678
209	12
248	4
267	2
