Mass Spectrum: Propanamide, 3-phenyl-N,N-dicyclohexyl-
Formula: C21H31NO
CAS: 91424-75-8
Molecular weight: 313
m/z	intensity
33	2
37	1
39	77
41	322
43	106
44	40
45	3
50	14
51	47
53	109
55	999
56	197
57	19
58	6
60	2
62	2
63	17
65	114
67	150
69	57
70	47
71	5
72	5
73	0
74	5
75	9
77	186
78	77
79	162
80	46
81	133
82	142
83	252
84	26
89	10
91	990
92	50
94	18
96	61
98	436
99	61
100	45
103	146
105	776
106	57
107	11
108	5
109	7
110	27
111	8
112	9
115	7
117	14
118	4
120	4
122	2
123	7
124	13
126	83
127	11
128	2
129	4
131	50
133	134
134	6
136	15
138	485
139	63
140	95
141	9
143	1
145	3
147	0
148	41
150	318
151	25
152	13
153	2
158	2
159	13
160	16
161	1
164	0
166	4
172	2
174	73
175	10
176	2
178	6
179	10
180	40
181	56
182	7
186	0
188	16
189	5
190	1
202	4
208	12
222	11
226	1
228	11
230	607
231	372
232	124
242	41
243	3
256	124
257	21
259	2
270	9
271	4
284	3
313	353
314	71
315	4
