Mass Spectrum: 1-(1-Acetoxyethyl)-3-acetyl-4,4-dimethyl-2,5-dioxoimidazolidine
Formula: C11H16N2O5
CAS: 91431-29-7
Molecular weight: 256
m/z	intensity
14	2
15	31
27	6
28	18
29	8
30	3
39	10
40	7
41	41
42	108
43	684
44	73
45	10
54	4
55	3
56	36
57	36
58	46
59	3
60	8
61	3
67	1
68	9
69	19
70	107
71	10
72	1
82	4
83	16
84	999
85	58
86	43
87	24
88	2
96	2
97	1
98	13
99	26
100	40
101	9
102	4
103	33
104	1
109	1
110	7
111	11
112	6
113	69
114	5
125	5
126	46
127	211
128	47
129	97
130	8
138	1
139	212
140	21
141	4
142	8
143	8
144	2
145	2
153	20
154	111
155	222
156	18
157	15
158	1
168	12
169	10
170	35
171	223
172	19
173	2
181	5
186	5
196	353
197	307
198	32
199	39
200	3
213	288
214	35
215	4
241	5
256	89
257	15
258	2
