Mass Spectrum: 5-Amino-3-azido-1,2,4-triazine-6-carbonitrile
Formula: C4H2N8
CAS: 91459-47-1
Molecular weight: 162
m/z	intensity
52	69
53	940
54	999
55	51
66	299
67	67
68	419
69	60
79	231
108	79
162	292
163	13
