Mass Spectrum: 3-Azido-6-nitro-1,2,3-triazin-5-amine
Formula: C3H2N8O2
CAS: 91459-48-2
Molecular weight: 182
m/z	intensity
52	74
53	275
54	74
66	49
67	42
68	999
69	80
86	33
99	30
128	42
136	40
154	179
155	6
182	768
183	27
