Mass Spectrum: Tricyclo(6.2.1.0(2,7))undec-4-ene
Formula: C11H16
CAS: 91465-71-3
Molecular weight: 148
m/z	intensity
15	1
26	3
27	66
28	7
29	33
38	4
39	144
40	30
41	214
42	13
43	2
50	9
51	52
52	30
53	96
54	57
55	37
56	2
57	6
58	15
59	9
60	2
62	3
63	16
64	9
65	122
66	999
67	452
68	36
69	12
70	13
71	2
73	1
74	2
75	3
76	3
77	270
78	211
79	941
80	943
81	309
82	55
83	7
89	7
90	2
91	497
92	335
93	197
94	216
95	17
96	1
102	4
103	22
104	13
105	203
106	187
107	298
108	27
109	1
115	25
116	9
117	27
118	24
119	594
120	536
121	52
122	2
127	2
128	7
129	4
130	1
131	4
132	3
133	169
134	20
135	1
145	1
146	23
147	44
148	546
149	67
150	4
