Mass Spectrum: 1-(Morpholin-4-yl)-1-sulfanylidenepropan-2-one
Formula: C7H11NO2S
CAS: 91468-12-1
Molecular weight: 173
m/z	intensity
33	10
34	17
35	1
36	1
37	4
38	12
39	89
40	119
41	398
42	285
43	645
44	153
45	444
46	49
47	32
48	4
49	1
50	3
51	13
52	29
53	32
54	102
55	254
56	241
57	291
58	136
59	357
60	451
61	28
62	18
63	2
64	40
65	11
66	12
67	46
68	47
69	218
70	155
71	154
72	127
73	61
74	21
75	4
76	20
77	16
78	5
79	19
80	8
81	22
82	46
83	125
84	81
85	113
86	999
87	82
88	148
89	12
90	6
91	6
93	3
94	8
95	11
96	29
97	107
98	39
115	225
116	14
117	13
128	29
129	10
130	936
131	61
132	43
133	2
142	17
143	5
144	11
145	2
156	13
157	1
158	1
173	242
174	24
175	13
176	1
