Mass Spectrum: Cyclopropane, 1-butylidene-2-(2-butylcyclopropyl)-
Formula: C14H24
CAS: 91509-01-2
Molecular weight: 192
m/z	intensity
26	17
27	576
29	589
30	22
31	52
32	1
35	21
36	26
37	10
39	513
41	999
42	243
43	329
44	39
45	122
46	11
47	42
48	7
49	10
50	22
51	79
52	50
53	208
54	167
55	496
56	39
57	226
58	23
59	26
60	7
61	32
62	4
63	18
65	128
66	96
67	306
68	69
69	87
71	151
72	37
73	24
74	68
75	8
77	306
78	94
79	723
80	199
81	186
82	36
83	29
84	5
85	24
87	133
88	8
89	9
91	230
92	59
93	562
94	113
95	80
96	40
97	26
98	1
99	5
101	11
102	13
103	9
104	3
105	44
106	9
107	170
108	45
109	17
110	6
115	5
117	16
119	19
121	131
122	24
123	5
129	8
133	1
135	81
136	17
137	3
144	42
145	3
146	1
149	28
150	28
151	3
156	1
163	63
164	11
177	2
192	1
