Mass Spectrum: 3-[5-(2-Acetoxypropyl)-2,2-dimethyl-[1,3]dioxolan-4-yl]acrylic acid, methyl ester
Formula: C14H22O6
CAS: 91527-04-7
Molecular weight: 286
m/z	intensity
25	1
26	6
27	50
28	20
29	39
30	2
31	25
33	1
37	1
38	6
39	131
40	20
41	119
42	32
43	973
44	29
45	26
46	0
47	4
48	3
49	0
50	2
51	5
52	4
53	26
54	12
55	81
56	11
57	28
58	13
59	120
60	9
61	27
62	1
63	2
64	0
65	13
66	14
67	22
68	31
69	64
70	9
71	47
72	14
73	263
74	14
75	2
76	1
77	10
78	3
79	19
80	5
81	61
82	23
83	229
84	33
85	64
86	7
87	31
88	3
89	1
90	1
91	20
92	5
93	21
94	10
95	44
96	20
97	222
98	999
99	168
100	27
101	18
102	1
103	2
105	3
106	2
107	5
108	10
109	82
110	26
111	32
112	26
113	111
114	17
115	16
116	15
117	2
118	1
119	13
120	2
121	8
122	1
123	9
124	8
125	23
126	30
127	89
128	15
129	6
130	1
131	1
132	1
133	1
134	1
135	4
136	21
137	297
138	34
139	12
140	4
141	28
142	22
143	22
144	2
145	20
146	2
147	0
149	1
150	1
151	81
152	11
153	43
154	6
155	20
156	189
157	18
158	4
159	1
167	11
168	23
169	246
170	27
171	8
172	2
173	0
176	0
177	3
178	0
179	4
180	0
181	1
182	0
183	2
184	3
185	21
186	3
187	3
193	1
194	2
195	8
196	1
197	83
198	9
199	2
200	0
201	1
211	19
212	2
213	5
214	0
215	5
216	0
225	0
226	1
227	1
228	1
229	79
230	9
231	1
243	1
244	0
254	1
255	1
257	0
271	236
272	34
273	5
285	1
