Mass Spectrum: Timolol
Formula: C13H24N4O3S
CAS: 91524-16-2
Molecular weight: 316
m/z	intensity
30	376
31	10
32	1
37	1
39	12
40	3
41	85
42	69
43	20
44	17
45	9
46	29
47	3
48	2
49	1
51	1
52	1
53	5
54	23
55	61
56	107
57	168
58	48
59	10
60	31
61	2
62	1
64	1
66	3
67	4
68	7
69	20
70	72
71	71
72	67
73	11
74	144
75	10
76	2
78	1
79	1
80	1
81	5
82	7
83	4
84	21
85	23
86	999
87	65
88	6
89	1
90	1
91	1
92	1
93	1
94	2
95	4
96	18
97	3
98	12
99	5
100	14
101	6
102	7
103	1
104	1
108	1
109	1
110	2
111	4
112	72
113	39
114	102
115	11
116	17
117	2
118	1
120	2
121	19
124	2
125	1
126	1
127	3
128	83
129	55
130	214
131	19
132	2
134	1
135	1
136	1
137	2
138	1
139	1
140	1
141	1
142	9
143	14
144	23
145	4
146	1
147	2
148	1
150	9
154	27
155	2
156	7
157	3
158	9
159	2
160	1
168	1
169	1
170	1
171	1
172	7
173	1
174	1
185	2
186	11
187	17
188	16
189	3
190	1
197	1
198	1
200	1
201	1
203	1
213	1
214	2
215	1
228	1
229	10
230	14
231	2
232	1
242	1
243	5
244	6
245	1
259	1
271	1
272	4
273	2
274	1
286	23
287	3
288	1
301	71
302	11
303	4
304	1
316	19
317	4
318	1
