Mass Spectrum: Cyclopenta[1,3]cyclopropa[1,2]cyclohepten-3(3aH)-one, 1,2,3b,6,7,8-hexahydro-6,6-dimethyl-
Formula: C13H18O
CAS: 91531-58-7
Molecular weight: 190
m/z	intensity
26	25
27	283
28	31
29	158
30	7
31	9
37	8
38	28
39	416
40	73
41	605
42	55
43	131
44	15
45	14
50	52
51	195
52	109
53	253
54	39
55	307
56	43
57	72
58	42
59	32
60	15
61	6
62	21
63	85
64	48
65	248
66	81
67	222
68	29
69	332
70	62
71	29
72	23
73	12
74	17
75	21
76	20
77	442
78	618
79	609
80	115
81	127
82	129
83	58
84	13
85	17
86	7
87	9
88	8
89	37
90	26
91	999
92	843
93	412
94	100
95	121
96	58
97	36
98	13
99	13
100	14
101	11
102	24
103	109
104	81
105	765
106	353
107	198
108	54
109	48
110	27
111	21
112	11
113	43
114	13
115	110
116	56
117	160
118	71
119	774
120	335
121	680
122	214
123	38
124	16
125	13
126	10
127	17
128	33
129	61
130	26
131	154
132	54
133	693
134	420
135	275
136	46
137	15
138	14
139	33
140	8
141	19
142	23
143	19
144	19
145	31
146	71
147	466
148	398
149	380
150	49
151	13
152	7
153	9
154	5
155	8
156	9
157	37
158	9
159	10
160	10
161	116
162	239
163	39
164	12
165	8
167	8
171	7
172	17
173	12
175	219
176	33
177	10
178	8
179	6
180	5
189	15
190	290
191	51
192	10
