Mass Spectrum: Cyclopropa[1,2:1,3]dicyclopenten-3(3aH)-one, 1,2,3b,6-tetrahydro-3a,6,6-trimethyl-
Formula: C12H16O
CAS: 91531-53-2
Molecular weight: 176
m/z	intensity
26	12
27	112
28	26
29	40
38	16
39	200
40	33
41	181
42	30
43	37
44	11
50	34
51	114
52	46
53	95
54	13
55	64
56	48
57	17
58	17
59	13
62	18
63	71
64	32
65	119
66	29
67	40
68	8
69	20
71	11
74	13
75	20
76	14
77	226
78	83
79	137
80	21
81	15
83	8
84	8
89	25
90	11
91	339
92	67
93	63
94	10
95	11
102	20
103	90
104	50
105	664
106	96
107	31
109	11
115	96
116	42
117	109
118	45
119	999
120	611
121	97
122	9
127	10
128	23
129	16
131	35
132	17
133	342
134	700
135	86
141	8
143	19
146	9
147	29
148	63
149	19
158	25
159	11
161	171
162	25
175	11
176	101
177	14
