Mass Spectrum: 1-Di(tert-butyl)silyloxycyclohexane
Formula: C14H30OSi
CAS: 91531-14-5
Molecular weight: 242
m/z	intensity
26	19
27	121
28	11
29	172
31	25
36	4
37	9
38	19
39	185
40	31
41	433
42	21
43	81
44	45
45	249
46	22
47	48
48	4
49	7
50	31
51	38
52	17
53	52
54	19
55	191
56	65
57	325
58	42
59	135
60	49
61	353
62	17
63	28
64	8
65	29
66	15
67	31
69	21
70	8
71	31
72	8
73	125
74	13
75	999
76	88
77	59
78	18
79	31
80	55
81	115
82	18
83	38
84	14
85	49
86	19
87	47
88	21
89	12
91	66
92	24
93	7
95	8
97	12
99	59
100	19
101	38
102	13
103	371
104	41
105	39
111	7
113	12
115	13
117	29
118	19
123	4
125	12
126	4
127	38
128	12
129	7
141	9
143	32
144	4
157	28
158	4
184	38
185	396
186	75
187	17
199	4
241	2
242	15
243	4
244	2
