Mass Spectrum: Cyclopenta[c]pentalen-3(3aH)-one, 1,2,5a,6,7,8-hexahydro-6,6-dimethyl-
Formula: C13H18O
CAS: 91531-59-8
Molecular weight: 190
m/z	intensity
26	12
27	149
29	80
30	5
31	9
38	13
39	207
40	34
41	316
42	31
43	52
44	12
45	5
50	28
51	114
52	90
53	107
54	14
55	138
56	31
57	47
58	19
59	9
62	12
63	43
64	30
65	158
66	42
67	59
68	12
69	320
70	51
71	18
72	5
73	9
74	13
76	15
77	254
78	999
79	645
80	99
81	44
82	15
83	26
84	7
85	17
87	6
89	16
90	17
91	545
92	423
93	310
94	61
95	29
96	17
97	28
98	9
99	6
101	5
102	16
103	68
104	43
105	269
106	210
107	79
108	22
109	18
110	17
111	16
112	15
115	66
116	35
117	87
118	45
119	618
120	297
121	965
122	235
123	30
124	11
125	6
127	9
128	16
129	28
130	17
131	158
132	39
133	204
134	284
135	304
136	40
137	7
141	19
142	10
143	10
144	23
145	18
146	91
147	175
148	80
149	378
150	51
151	7
155	9
157	21
158	6
159	6
161	38
162	64
163	11
169	5
172	12
173	5
175	201
176	29
177	4
178	4
180	6
189	5
190	572
191	96
192	11
