Mass Spectrum: Di(t-butyl)benzyloxysilane
Formula: C15H26OSi
CAS: 91531-12-3
Molecular weight: 250
m/z	intensity
26	7
27	65
28	10
29	218
30	7
31	6
37	6
38	12
39	139
40	25
41	281
42	37
43	49
44	19
45	102
46	7
47	17
50	8
51	39
52	11
53	15
55	25
56	27
57	209
58	29
59	99
60	13
61	68
62	6
63	29
64	7
65	165
69	7
71	6
73	33
74	7
75	59
77	17
79	11
89	32
90	17
91	999
92	118
93	8
121	71
122	8
134	13
135	125
136	17
137	25
148	7
151	89
152	11
153	5
163	89
164	22
165	99
166	19
167	7
192	7
193	255
194	49
195	15
