Mass Spectrum: Guanido-dl-tryptophane
Formula: C12H14N4O2
CAS: 91568-61-5
Molecular weight: 246
m/z	intensity
42	89
43	131
44	8
51	21
63	17
69	27
76	11
77	87
78	19
89	8
98	26
99	25
101	9
102	47
103	62
115	20
117	33
128	38
129	36
130	999
131	106
163	9
228	56
229	9
246	12
