Mass Spectrum: Acetamide, N,N'-(methylenebis(2-chloro-4,1-phenylene))bis-
Formula: C17H16Cl2N2O2
CAS: 91575-29-0
Molecular weight: 350
m/z	intensity
35	2
36	9
37	12
38	21
39	48
40	31
41	22
43	999
44	39
45	14
49	8
50	55
51	77
52	69
53	8
54	5
55	11
56	9
57	18
60	11
61	3
62	12
63	36
64	10
65	9
67	3
69	7
70	7
71	8
73	9
74	25
75	24
76	28
77	121
78	330
79	21
81	3
82	3
83	6
84	7
85	4
86	5
87	9
88	7
89	16
90	20
91	14
92	7
93	5
97	9
98	7
99	16
100	5
101	10
102	16
103	6
104	58
105	15
106	6
110	3
111	9
112	14
113	17
114	15
115	20
116	11
117	7
118	12
119	4
121	4
123	7
124	8
125	10
126	9
127	60
128	15
129	19
130	10
133	19
134	14
135	2
136	3
137	5
138	29
139	56
140	354
141	43
142	97
143	17
144	3
146	88
147	15
148	4
149	13
150	11
151	29
152	42
153	16
154	18
155	8
156	4
161	2
162	2
163	4
164	28
165	14
166	59
167	101
168	74
169	25
170	4
171	14
172	2
173	7
174	7
175	10
176	11
177	23
178	20
179	13
180	45
181	13
182	22
183	4
184	5
185	2
186	5
187	3
188	6
189	4
190	6
191	9
192	27
193	51
194	93
195	197
196	74
197	12
200	4
201	11
202	19
203	27
204	10
205	10
206	5
208	3
209	2
212	3
213	5
214	36
215	12
216	20
217	3
218	2
219	3
221	11
222	5
227	4
228	13
229	190
230	136
231	639
232	128
233	186
234	29
235	8
236	3
237	17
238	11
239	4
240	3
243	4
245	3
248	5
249	3
250	23
251	5
252	16
254	3
255	5
257	19
258	4
259	7
263	3
264	7
265	145
266	355
267	144
268	235
269	51
270	40
271	23
272	33
273	460
274	96
275	154
276	28
277	4
279	5
281	3
283	4
291	4
292	6
293	4
294	3
299	3
301	3
307	20
308	386
309	81
310	240
311	41
312	39
313	9
314	6
315	579
316	120
317	196
318	39
319	6
329	2
335	5
337	2
350	570
351	114
352	368
353	71
354	65
355	11
