Mass Spectrum: Bicyclo[4.4.0]dec-5-en-4-one-1-carboxylic acid
Formula: C11H14O3
CAS: 91586-50-4
Molecular weight: 194
m/z	intensity
26	9
27	100
28	46
29	38
38	17
39	202
40	47
41	158
42	31
43	33
44	259
45	11
50	32
51	92
52	66
53	112
54	41
55	94
56	15
57	20
58	16
59	9
60	8
62	15
63	46
64	17
65	109
66	69
67	125
68	40
69	19
70	9
71	10
74	9
75	11
76	8
77	240
78	95
79	430
80	245
81	95
82	19
83	25
84	15
85	12
86	10
87	10
89	14
91	253
92	71
93	576
94	181
95	78
96	25
97	13
98	17
99	8
103	19
104	19
105	48
106	49
107	155
108	999
109	158
110	16
111	30
112	8
115	17
116	8
117	26
119	14
120	30
121	56
122	195
123	27
124	21
132	24
133	11
135	50
136	17
138	21
148	31
149	42
150	817
151	146
152	16
