Mass Spectrum: 1-(6-Methyl-2-pyridyl)-3-phenylurea
Formula: C13H13N3O
CAS: 91597-29-4
Molecular weight: 227
m/z	intensity
33	1
34	1
37	41
38	93
39	244
40	67
41	73
42	65
43	12
44	10
45	9
47	8
48	1
50	47
51	79
52	65
53	56
54	24
55	5
56	2
57	3
60	7
61	9
62	20
63	70
64	137
65	224
66	150
67	24
68	11
69	4
70	1
71	1
73	1
74	6
75	6
77	57
78	17
80	254
81	279
82	16
83	3
85	3
87	2
88	2
91	240
92	156
93	427
94	26
95	1
103	1
104	1
105	10
106	6
108	999
109	64
110	2
114	9
115	1
119	114
120	9
121	1
134	87
135	88
136	7
161	1
168	1
183	2
209	1
227	91
228	9
229	1
