Mass Spectrum: Dichloro[(trichloromethyl)thio]methanesulfenyl chloride
Formula: C2Cl6S2
CAS: 91631-93-5
Molecular weight: 298
m/z	intensity
76	80
79	220
81	80
82	60
84	40
117	999
119	950
121	300
146	40
148	30
149	180
151	180
153	60
181	20
183	20
184	20
185	10
186	30
188	10
193	10
195	10
199	20
201	30
203	20
228	10
230	20
231	30
233	50
235	30
237	10
263	70
265	120
267	80
269	30
298	10
300	20
302	20
304	10
