Mass Spectrum: Trichloromethyl N,N-bis(phenylmethyl)carbamodithioate
Formula: C16H14Cl3NS2
CAS: 91631-92-4
Molecular weight: 389
m/z	intensity
91	999
105	270
123	350
125	140
126	60
128	40
149	90
151	90
153	30
196	60
228	170
240	10
272	70
275	60
277	20
345	10
347	10
389	0
391	0
