Mass Spectrum: 4-Benzyloxy-2-butanone semicarbazone
Formula: C12H17N3O2
CAS: 91646-53-6
Molecular weight: 235
m/z	intensity
15	7
16	3
17	8
18	1
26	3
27	20
28	23
29	23
30	35
31	22
32	2
37	1
38	4
39	48
40	8
41	53
42	52
43	44
44	60
45	8
46	2
50	9
51	30
52	9
53	10
54	22
55	43
56	61
57	78
58	10
59	2
60	8
61	9
62	3
63	17
64	6
65	121
66	8
67	2
68	11
69	33
70	60
71	135
72	21
73	6
74	6
75	3
76	2
77	44
78	12
79	30
80	3
81	2
82	3
83	132
84	58
85	50
86	64
87	9
88	7
89	24
90	14
91	999
92	97
93	7
95	1
96	2
97	3
98	2
99	62
100	173
101	189
102	9
103	3
104	21
105	27
106	32
107	25
108	17
109	2
111	7
112	18
113	4
114	28
115	4
116	22
117	4
118	2
119	3
120	4
121	1
126	3
127	85
128	9
129	256
130	20
131	9
132	4
133	1
134	1
143	1
144	375
145	27
146	17
147	4
149	8
150	1
160	17
161	8
162	5
163	1
174	2
175	5
176	71
177	9
178	1
190	9
191	2
192	2
220	2
235	20
236	4
