Mass Spectrum: Ethyl (2-(benzoyloxy)ethyl)carbamate
Formula: C12H15NO4
CAS: 91642-01-2
Molecular weight: 237
m/z	intensity
14	2
15	14
19	2
26	8
27	56
28	49
29	152
30	297
31	35
37	1
38	4
39	11
40	4
41	8
42	44
43	150
44	27
45	28
46	8
49	2
50	57
51	178
52	12
53	3
55	1
56	64
57	3
58	36
59	3
60	6
62	2
63	3
65	4
66	1
69	14
70	15
71	2
73	2
74	25
75	17
76	32
77	488
78	39
79	10
86	4
87	10
88	15
89	1
90	1
91	11
92	8
93	1
94	1
100	1
102	268
103	15
104	9
105	999
106	84
107	5
115	867
116	61
117	6
118	3
119	4
120	1
121	2
122	98
123	14
124	1
132	5
133	1
135	10
136	2
146	1
147	10
148	2
149	2
150	2
191	3
192	5
238	8
239	1
