Mass Spectrum: 1-(Alpha-acetamidotoluene-p-sulfonyl)-3-ethylurea
Formula: C12H17N3O4S
CAS: 91647-10-8
Molecular weight: 299
m/z	intensity
12	2
13	2
14	10
15	63
16	5
17	22
18	2
25	3
26	25
27	84
28	239
29	51
30	590
31	79
32	9
33	2
34	4
37	3
38	22
39	70
40	68
41	116
42	118
43	988
44	225
45	200
46	29
47	1
48	19
49	2
50	68
51	90
52	37
53	10
54	10
55	10
56	228
57	7
58	7
59	4
60	4
61	3
62	18
63	90
64	56
65	25
66	10
67	9
68	2
69	9
70	16
71	172
72	23
73	6
74	20
75	24
76	76
77	257
78	135
79	121
80	12
81	2
82	3
83	2
84	2
85	1
86	4
87	4
88	3
89	353
90	177
91	43
92	15
93	22
94	16
95	11
96	2
97	2
98	5
99	1
101	2
102	10
103	40
104	200
105	892
106	999
107	113
108	10
109	27
110	7
111	6
115	1
116	9
117	5
118	7
119	18
120	18
121	42
122	35
123	16
124	8
125	11
126	1
127	6
128	3
129	6
130	12
131	10
132	29
133	9
134	5
135	8
136	9
137	11
138	19
139	3
140	4
141	35
142	3
143	2
144	1
145	2
146	9
147	583
148	181
149	23
150	4
151	1
152	58
153	31
154	27
155	7
156	1
157	1
158	6
159	1
161	1
163	3
164	28
165	5
166	2
167	5
168	23
169	11
170	517
171	47
172	25
173	2
177	3
179	2
180	1
181	22
182	3
183	4
184	25
185	81
186	12
187	5
190	1
192	1
193	1
194	1
195	7
196	78
197	13
198	4
199	1
208	1
209	9
210	7
211	432
212	615
213	91
214	34
215	4
223	5
226	1
227	4
228	206
229	28
230	11
231	2
235	2
236	2
237	3
238	1
239	5
251	2
253	22
254	892
255	130
256	55
257	6
258	1
