Mass Spectrum: .alpha.-Aminooxy-propionic acid, methyl ester
Formula: C4H9NO3
CAS: 91666-48-7
Molecular weight: 119
m/z	intensity
42	449
43	601
44	151
45	280
55	631
56	74
57	87
59	601
60	999
61	62
87	934
88	202
119	552
120	52
