Mass Spectrum: 2-Aminooxy-4-methylvaleric acid, methyl ester
Formula: C7H15NO3
CAS: 91666-50-1
Molecular weight: 161
m/z	intensity
31	92
33	85
34	32
39	140
40	34
41	575
42	167
43	575
44	781
45	134
46	54
53	30
54	13
55	650
56	455
57	297
58	91
59	355
60	79
67	58
68	25
69	999
70	91
71	59
72	13
73	113
74	34
75	16
76	19
80	32
81	8
82	32
83	21
84	32
85	492
86	98
87	822
88	63
89	34
90	42
95	51
96	23
97	573
98	68
99	19
101	69
102	406
103	34
104	20
111	25
112	16
113	75
114	27
115	14
125	22
126	20
127	315
128	44
129	106
130	19
161	18
