Mass Spectrum: 2-Hydroxynaphthaldehyde phenylhydrazone
Formula: C17H14N2O
CAS: 91679-48-0
Molecular weight: 262
m/z	intensity
26	3
27	26
28	176
29	14
32	27
36	14
37	8
38	37
39	131
40	19
41	54
42	10
43	46
44	36
50	36
51	84
52	30
53	8
54	11
55	47
56	21
57	78
61	9
62	42
63	104
64	59
65	302
66	132
67	13
69	26
70	38
71	59
73	4
74	21
75	31
76	25
77	113
78	25
83	25
84	15
85	12
86	12
87	24
88	42
89	51
90	11
91	114
92	234
93	999
94	84
97	9
98	9
99	4
101	10
102	14
111	6
112	26
113	77
114	172
115	353
116	39
118	16
119	32
125	12
126	24
127	55
128	67
129	37
130	3
131	33
140	53
141	70
142	33
143	33
144	50
152	37
153	2
154	10
155	3
157	103
158	10
168	2
169	78
170	307
171	115
172	5
199	3
216	2
217	7
218	5
232	1
233	1
245	406
246	73
247	7
259	2
260	7
261	69
262	545
263	100
