Mass Spectrum: Dimethyl((2,4,5-trimethylcyclohexyl)methyl)amine
Formula: C12H25N
CAS: 91688-73-2
Molecular weight: 183
m/z	intensity
15	17
27	7
28	15
29	10
30	11
39	9
40	2
41	38
42	23
43	15
44	13
45	5
46	3
51	1
53	7
54	2
55	37
56	8
57	25
58	999
59	62
60	1
63	1
65	2
66	1
67	13
68	7
69	39
70	6
71	5
72	8
77	3
78	1
79	5
80	1
81	16
82	9
83	50
84	8
85	1
91	4
93	3
94	1
95	9
96	7
97	9
98	3
105	2
107	3
108	1
109	5
110	2
111	1
112	1
119	2
120	1
121	3
122	1
123	5
124	2
125	1
134	1
136	1
137	2
138	3
139	22
140	9
164	1
166	8
167	1
168	3
181	3
182	3
183	55
184	8
