Mass Spectrum: 2-Undecene, 4-methyl-
Formula: C12H24
CAS: 91695-32-8
Molecular weight: 168
m/z	intensity
24	2
25	0
26	4
27	77
28	9
29	110
30	2
35	1
37	4
38	2
39	66
40	15
41	493
42	74
43	180
45	1
49	0
50	1
51	4
52	1
53	31
54	17
55	376
56	561
57	129
58	5
59	1
63	0
65	6
66	5
67	62
68	73
69	999
70	302
71	48
72	1
77	4
78	1
79	6
80	0
81	15
82	11
83	93
84	290
85	99
86	4
93	1
94	1
95	5
96	5
97	60
98	20
99	2
109	1
111	5
112	3
113	0
124	6
125	35
126	15
127	1
140	3
152	0
167	0
168	22
169	0
