Mass Spectrum: Propanal, 2-chloro-2-methyl-
Formula: C4H7ClO
CAS: 917-93-1
Molecular weight: 106
m/z	intensity
36	12
48	26
49	68
70	30
76	29
77	999
78	115
79	269
80	25
105	64
106	860
107	62
108	378
109	16
