Mass Spectrum: 1-Phenyl-3-(3,4,5-trichloro-2-thienyl)-2-pyrazoline
Formula: C13H9Cl3N2S
CAS: 91708-03-1
Molecular weight: 330
m/z	intensity
33	9
35	22
36	35
37	21
38	69
39	110
40	82
41	61
42	40
43	38
44	39
45	13
50	61
51	458
52	35
55	28
56	9
57	17
58	11
62	32
63	84
64	145
65	71
66	15
68	16
69	34
70	22
71	12
73	17
74	49
75	32
77	999
78	76
79	92
80	9
81	56
82	22
83	10
84	17
85	14
87	18
89	62
91	423
92	49
93	26
94	25
95	17
96	11
97	16
99	17
102	28
104	182
105	85
106	34
107	13
108	19
109	13
110	12
111	15
115	44
116	30
117	52
118	37
119	32
120	21
127	13
128	9
129	18
131	11
132	11
141	37
143	30
145	10
150	15
152	10
154	11
155	45
157	19
163	11
164	9
165	41
166	23
167	17
176	11
187	9
189	14
190	53
192	48
199	16
201	9
211	16
213	16
214	11
223	13
224	11
225	24
227	17
231	9
328	54
329	43
330	159
331	60
332	124
333	34
334	40
