Mass Spectrum: Farnesol formate
Formula: C16H26O2
CAS: 917105-98-7
Molecular weight: 250
m/z	intensity
29	70
31	26
39	62
41	381
42	40
43	163
47	13
53	80
55	109
57	168
59	78
65	19
67	208
68	193
69	999
70	62
71	75
75	77
77	27
79	68
80	97
81	296
82	51
83	66
84	63
85	78
91	48
92	36
93	288
94	64
95	129
96	26
99	62
100	20
105	54
106	18
107	193
108	37
109	104
110	21
111	34
112	65
113	25
115	25
119	50
120	16
121	162
122	61
123	84
124	17
125	30
127	43
129	39
133	37
134	33
135	110
136	106
137	55
147	22
148	19
149	19
155	31
159	23
161	43
162	10
163	16
171	32
189	39
191	36
204	15
250	10
