Mass Spectrum: 1,2-Pyrrolidinedicarboxylic acid, 1-(1,1-dimethylethyl) ester
Formula: C10H17NO4
CAS: 91716-96-0
Molecular weight: 215
m/z	intensity
26	4
27	64
28	85
29	141
30	12
31	12
33	0
37	3
38	6
39	85
40	14
41	332
42	49
43	67
44	12
45	31
46	1
49	0
50	1
51	4
52	2
53	12
54	6
55	21
56	28
57	795
58	30
59	22
60	1
61	0
65	1
66	1
67	6
68	57
69	30
70	977
71	47
72	1
73	0
74	2
75	0
77	0
78	2
79	2
80	0
81	2
82	2
83	2
84	0
85	2
86	1
87	46
88	4
89	1
91	0
94	0
95	1
96	4
97	2
98	1
99	0
103	0
105	3
106	1
107	0
109	1
110	1
111	1
112	1
113	33
114	999
115	268
116	34
117	2
119	0
120	0
121	0
122	0
123	0
124	0
125	0
126	3
127	0
129	0
133	0
135	0
136	0
137	0
140	0
141	1
142	34
143	1
144	0
147	0
149	0
152	0
153	0
154	0
155	0
156	9
157	1
158	0
159	1
160	12
161	1
163	0
170	58
171	45
172	4
173	0
182	0
185	0
200	2
214	0
215	3
216	1
