Mass Spectrum: 1-Ethoxy-3,3-diethyltriazene 2-oxide
Formula: C6H15N3O2
CAS: 91725-44-9
Molecular weight: 161
m/z	intensity
29	420
30	40
31	20
41	20
42	230
43	80
44	430
45	90
56	190
57	50
71	30
72	20
73	30
74	20
75	270
85	60
87	110
102	500
103	999
104	60
161	20
