Mass Spectrum: 1-Benzyl-2-propoxy-3-(4-nitrophenyl)-1,2-dihydroquinoxaline
Formula: C24H23N3O3
CAS: 91736-70-8
Molecular weight: 401
m/z	intensity
57	230
59	420
60	470
75	130
76	300
77	760
78	130
79	400
102	160
103	80
105	470
106	210
107	999
108	210
149	840
150	130
151	80
178	70
179	210
180	180
193	80
205	210
221	130
251	530
252	80
342	10
