Mass Spectrum: 2-(p-Nitrophenyl)-1,3-propanediol
Formula: C9H11NO4
CAS: 91748-03-7
Molecular weight: 197
m/z	intensity
42	211
43	43
50	12
51	37
60	999
61	19
65	15
77	59
78	24
89	13
90	13
91	9
105	21
106	32
116	8
117	27
118	8
129	3
135	5
136	29
137	3
146	5
151	8
153	18
181	21
182	2
