Mass Spectrum: [5-(4-Hydroxyphenyl)-1,2,3,4-tetrazol-2-yl]acetic acid
Formula: C9H8N4O3
CAS: 91759-63-6
Molecular weight: 220
m/z	intensity
35	7
36	45
37	62
38	108
39	226
40	28
41	54
42	135
43	150
44	109
45	532
46	16
49	21
50	151
51	223
52	80
53	88
54	17
55	37
56	2
57	4
59	19
60	22
61	29
62	76
63	192
64	247
65	320
66	38
67	11
68	6
69	2
73	9
74	53
75	51
76	38
77	60
78	18
79	23
80	11
81	3
85	3
86	7
87	7
88	8
90	99
91	183
92	98
93	80
94	11
101	8
102	14
103	3
104	6
105	28
106	4
107	15
108	27
117	26
119	999
120	436
121	470
122	299
123	21
124	5
133	4
134	21
135	6
136	14
137	3
138	3
146	4
147	358
148	51
149	2
163	14
164	1
192	123
193	15
194	1
220	117
221	13
222	1
