Mass Spectrum: (1S,9aS,Z)-1-Methyl-3-((R)-2-methylhexylidene)octahydro-1H-quinolizin-1-ol
Formula: C17H31NO
CAS: 917595-77-8
Molecular weight: 265
m/z	intensity
51	4
52	3
53	36
54	21
55	142
56	73
57	20
58	8
59	2
63	1
65	18
66	9
67	63
68	34
69	40
70	16
72	2
77	26
78	6
79	43
80	22
81	49
82	64
83	80
84	999
85	278
86	190
87	11
90	2
91	21
92	5
93	24
94	20
95	60
96	57
97	26
98	197
99	15
100	2
102	1
103	2
104	2
105	7
106	9
107	25
108	19
109	44
110	27
111	10
112	4
115	1
116	1
117	4
118	4
119	5
120	15
121	17
122	65
123	95
124	56
125	20
126	93
127	9
128	4
129	1
130	2
131	2
132	5
133	6
134	22
135	11
136	49
137	48
138	19
139	7
140	6
141	1
143	1
144	2
145	1
146	5
147	6
148	21
150	27
151	20
152	10
153	2
158	1
159	1
160	5
162	89
163	15
164	30
165	18
166	21
167	12
168	3
169	1
172	2
174	11
175	3
178	8
180	510
181	66
182	7
186	2
188	8
190	34
191	6
192	6
193	1
194	4
195	1
202	2
204	5
206	9
208	97
209	27
210	3
216	1
218	3
220	65
222	98
223	22
224	2
230	2
232	14
233	3
234	1
236	8
237	1
244	1
246	6
247	8
248	15
250	20
251	3
264	35
265	69
266	13
267	1
