Mass Spectrum: [1,2,4]Oxadiazin-6-one, 4,5-dihydro-5-(1-methylpropyl)-3-phenyl-
Formula: C13H16N2O2
CAS: 91757-28-7
Molecular weight: 232
m/z	intensity
26	8
27	99
28	242
29	196
30	43
31	1
37	2
38	8
39	110
40	15
41	223
42	34
43	45
44	32
45	3
46	2
49	2
50	43
51	137
52	32
53	23
54	23
55	44
56	74
57	176
58	10
59	1
61	2
62	6
63	28
64	26
65	19
66	5
67	9
68	19
69	18
70	63
71	6
72	4
73	6
74	10
75	15
76	86
77	535
78	43
79	6
80	2
81	3
82	4
83	5
84	21
85	4
86	2
87	2
88	8
89	20
90	11
91	46
92	29
93	6
94	1
95	3
96	0
97	6
98	0
99	0
100	1
101	1
102	10
103	342
104	764
105	81
106	6
110	0
111	1
112	2
113	0
115	6
116	11
117	16
118	18
119	999
120	120
121	5
122	0
127	2
128	3
129	3
130	14
131	68
132	26
133	3
134	0
136	3
137	0
138	1
141	1
142	1
143	6
144	53
145	74
146	10
147	529
148	51
149	3
153	2
155	1
156	4
157	4
158	14
159	26
160	8
161	3
162	0
163	0
168	0
169	0
170	0
171	3
172	11
173	14
174	2
175	8
176	129
177	13
178	1
181	0
185	0
186	0
187	8
188	8
189	4
190	0
198	3
199	1
200	1
203	1
204	0
214	0
215	1
216	1
217	1
218	0
232	116
233	16
234	1
237	0
