Mass Spectrum: Pyridazin-3(2H)-one, 4-chloro-2-phenyl-5-propoxy-
Formula: C13H13ClN2O2
CAS: 91762-36-6
Molecular weight: 264
m/z	intensity
37	1
38	29
39	137
40	72
41	363
42	118
43	419
44	133
47	0
50	24
51	197
52	72
53	21
54	2
61	2
62	3
63	63
64	133
65	98
66	12
69	1
72	7
73	1
74	3
75	14
76	21
77	999
78	378
79	15
89	70
90	27
91	264
92	226
93	44
94	0
102	15
103	88
104	51
105	211
106	42
118	18
119	55
120	18
131	8
132	27
138	50
139	13
140	6
194	2
196	0
221	294
222	282
223	141
224	87
225	13
263	26
264	411
265	164
266	149
267	29
