Mass Spectrum: Desmethylsertraline
Formula: C16H15Cl2N
CAS: 91797-58-9
Molecular weight: 291
m/z	intensity
36	7
37	24
39	40
41	30
42	37
43	70
47	17
49	30
50	55
51	52
52	30
53	10
54	35
56	45
62	30
63	48
65	35
66	14
67	28
68	14
70	16
71	45
73	27
74	57
75	57
76	50
77	72
78	15
79	25
80	19
81	20
82	5
83	35
84	34
85	43
86	28
87	43
88	43
89	59
90	56
91	85
92	35
93	21
94	15
95	72
97	99
98	32
99	38
100	45
101	79
102	107
103	29
104	142
105	32
106	29
107	21
109	85
110	40
111	33
112	48
113	32
114	54
115	122
116	84
117	53
118	88
119	999
120	108
123	23
125	25
126	20
127	81
128	148
129	41
130	290
131	58
132	33
133	32
134	20
135	24
137	23
139	41
143	19
144	55
145	522
146	64
147	35
148	16
149	24
150	19
151	26
152	26
153	20
159	84
160	21
161	60
162	28
163	66
164	44
165	137
166	39
172	19
176	74
177	34
178	42
180	13
181	15
183	12
184	14
187	23
189	28
190	35
191	44
192	72
193	86
196	25
197	20
198	16
199	59
200	26
201	48
202	77
203	66
204	47
205	16
206	23
210	27
211	24
212	89
213	22
214	45
215	19
216	17
217	18
225	25
227	56
228	101
229	25
230	21
235	17
237	22
238	73
239	84
240	27
241	17
242	17
244	17
246	246
247	39
248	164
249	28
250	50
259	28
261	51
262	83
263	50
264	53
265	38
266	18
274	229
275	46
276	188
277	42
278	23
279	19
280	19
290	183
291	70
292	108
293	34
294	16
295	13
