Mass Spectrum: 1-Benzoylamino-1-cyanocyclopentane
Formula: C13H14N2O
CAS: 91806-24-5
Molecular weight: 214
m/z	intensity
41	33
42	15
44	19
47	12
49	106
51	199
52	14
53	14
54	13
55	6
56	0
57	0
62	1
63	3
64	2
65	9
66	7
67	9
68	1
69	0
73	0
74	5
77	387
78	30
79	23
80	2
81	2
82	2
84	78
86	54
88	14
90	0
91	1
92	4
93	5
94	9
95	0
99	0
105	999
106	72
107	4
109	30
111	22
116	0
121	46
122	74
123	4
130	1
133	0
137	2
146	0
148	1
158	0
159	4
160	2
161	9
168	2
169	3
170	1
173	16
174	2
185	60
186	11
187	10
188	4
196	0
197	2
213	10
214	98
215	17
216	0
