Mass Spectrum: Propanedioic acid, monocyclohexyl ester
Formula: C9H14O4
CAS: 91851-80-8
Molecular weight: 186
m/z	intensity
25	3
26	23
27	235
28	31
29	201
30	10
31	93
36	1
37	6
38	19
39	282
40	48
41	531
42	171
43	996
44	437
45	63
47	3
49	1
50	18
51	35
52	18
53	107
54	427
55	584
56	135
57	793
58	133
59	59
60	40
61	80
62	3
63	5
64	1
65	20
66	26
67	999
68	83
69	44
70	50
71	140
72	69
73	6
74	11
75	2
76	1
77	24
78	5
79	54
80	24
81	222
83	491
84	37
85	21
87	329
88	12
89	3
91	11
92	1
93	2
94	4
95	6
96	4
97	12
98	124
99	314
100	127
101	15
102	10
103	7
104	3
105	439
106	16
107	5
108	3
109	32
110	2
119	22
120	3
126	137
127	123
128	10
129	3
140	5
141	2
142	5
143	11
144	1
157	8
158	2
169	18
170	1
171	0
185	1
186	6
187	14
188	1
