Mass Spectrum: 4,4,6,6-Tetramethyl-2-phenyl-5,6-dihydro-4H-1,3-oxazine
Formula: C14H19NO
CAS: 91875-64-8
Molecular weight: 217
m/z	intensity
12	9
13	4
14	41
15	53
16	7
17	47
18	169
19	1
24	4
25	14
26	82
27	124
28	141
29	96
30	56
31	25
32	66
34	9
36	35
37	4
38	14
39	58
40	41
41	209
42	54
43	225
44	37
45	9
46	1
49	3
50	24
51	54
52	13
53	17
54	22
55	72
56	98
57	64
58	12
59	19
60	6
61	1
63	4
64	4
65	9
66	9
67	54
68	28
69	116
100	4
101	6
102	7
103	25
104	49
105	999
106	78
107	14
108	7
109	24
110	14
111	54
112	14
113	12
115	7
117	4
118	3
119	5
120	3
121	12
122	19
123	22
124	9
125	14
126	6
127	8
129	11
133	5
135	12
136	7
137	16
138	4
139	5
140	4
141	8
160	5
161	20
162	193
163	22
202	66
203	12
216	3
217	99
218	23
219	1
