Mass Spectrum: 4-Methyl-5,6-tetramethylene-2-phenyl-5,6-dihydro-4H-1,3-oxazine
Formula: C15H19NO
CAS: 91875-83-1
Molecular weight: 229
m/z	intensity
25	8
26	15
27	43
28	2
29	31
31	9
32	1
37	3
38	9
39	58
40	16
41	99
42	21
43	62
44	39
45	61
46	4
50	19
51	47
52	13
53	33
54	59
55	105
56	37
57	22
58	9
59	4
60	4
61	2
63	6
64	4
65	10
66	4
67	125
68	31
69	50
70	17
71	20
72	4
73	4
74	9
75	10
76	31
77	257
78	30
79	37
80	15
81	49
82	53
83	15
84	9
85	11
86	5
88	4
89	3
90	3
91	15
92	5
93	18
94	1
95	9
96	1
97	12
98	6
99	5
102	3
103	36
104	48
105	999
106	69
107	3
108	7
109	12
110	3
111	10
112	4
113	1
114	3
115	3
119	2
121	6
122	5
123	3
124	21
125	30
127	3
130	4
131	6
147	5
148	594
149	62
150	9
164	15
165	4
214	6
227	3
228	6
229	136
230	22
231	4
