Mass Spectrum: Cyclohexanespiro-5'-(2'-phenyl-2'-oxazoline)
Formula: C14H17NO
CAS: 91875-86-4
Molecular weight: 215
m/z	intensity
12	11
13	8
15	54
24	5
25	23
26	172
27	307
28	118
29	161
30	56
31	43
32	4
36	9
37	7
38	17
39	122
40	36
41	276
42	84
43	176
44	14
45	3
49	5
50	44
51	139
52	29
53	53
54	51
55	161
56	36
57	69
58	9
59	3
60	20
61	8
62	9
63	29
64	11
65	28
66	14
67	76
68	23
69	84
70	26
71	33
72	3
73	10
74	8
75	16
76	51
77	32
78	52
79	69
80	14
81	49
82	20
83	35
84	15
85	17
86	6
87	4
88	3
89	85
90	111
91	85
92	13
93	17
94	22
95	19
96	9
97	20
98	11
99	6
102	7
103	68
104	84
105	308
106	27
107	6
108	5
109	10
110	46
111	21
112	8
113	5
115	9
116	53
117	999
118	207
119	11
122	17
123	7
125	6
130	16
131	23
132	7
134	7
135	13
144	33
145	10
158	88
159	23
160	9
172	53
173	9
186	22
187	9
214	6
215	161
216	29
217	3
