Mass Spectrum: 2,4,4,5,6-Pentamethyl-5,6-dihydro-4H-1,3-oxazine
Formula: C9H17NO
CAS: 91875-61-5
Molecular weight: 155
m/z	intensity
39	68
40	27
41	200
42	210
43	590
44	12
51	11
53	26
54	15
55	130
56	68
57	68
58	999
59	36
60	140
67	19
69	32
70	94
71	51
72	100
77	11
81	26
82	10
83	25
84	32
85	16
86	24
96	23
97	16
98	18
99	39
100	390
101	28
102	12
114	20
155	48
156	5
