Mass Spectrum: 4,4,6-Trimethyl-2,6-diphenyl-5,6-dihydro-4H-1,3-oxazine
Formula: C19H21NO
CAS: 91875-66-0
Molecular weight: 279
m/z	intensity
12	4
13	2
14	8
15	23
16	8
17	13
18	71
24	4
25	11
26	49
27	42
28	107
29	20
30	4
31	3
32	11
36	4
37	5
38	8
39	65
40	21
41	105
42	85
43	110
44	16
45	9
49	5
50	38
51	121
52	17
53	10
54	5
55	28
56	56
57	19
58	15
59	2
60	6
61	2
62	2
63	13
64	4
65	18
66	4
67	8
68	4
69	11
70	8
71	9
73	2
74	17
75	11
76	40
77	599
78	134
79	16
80	1
81	8
82	5
83	102
84	12
85	4
87	2
89	8
90	4
91	67
92	11
93	3
94	1
95	4
96	3
97	5
98	2
99	2
100	2
101	8
102	13
103	134
104	78
105	829
106	65
107	5
108	3
111	3
115	51
116	14
117	206
118	999
119	105
120	6
121	3
122	51
123	5
124	2
125	3
126	1
127	3
128	7
129	5
130	2
131	2
132	1
133	3
141	3
142	4
144	14
145	7
146	2
157	2
158	4
159	2
160	6
161	10
162	164
163	17
253	5
255	3
264	26
265	7
279	49
280	10
281	1
