Mass Spectrum: 2,4,4,6,6-Pentamethyl-5,6-dihydro-4H-1,3-oxazine
Formula: C9H17NO
CAS: 91875-62-6
Molecular weight: 155
m/z	intensity
26	3
27	64
28	100
29	53
30	15
31	4
32	4
38	5
39	109
40	30
41	225
42	269
43	999
44	425
45	6
51	4
52	2
53	17
54	7
55	40
56	233
57	73
58	700
59	41
60	30
65	5
66	5
67	32
68	4
69	3
70	4
71	65
72	3
73	1
80	4
81	18
82	23
83	56
84	58
85	31
86	20
87	5
97	4
98	105
99	64
100	384
101	94
102	3
120	1
121	1
122	64
123	2
140	21
141	2
155	158
156	11
