Mass Spectrum: 6-Phenyl-2,4,4,6-tetramethyl-5,6-dihydro-4H-1,3-oxazine
Formula: C14H19NO
CAS: 91875-63-7
Molecular weight: 217
m/z	intensity
38	3
39	57
40	14
41	89
42	150
43	930
44	32
45	5
49	4
50	14
51	60
52	14
53	13
54	6
55	36
56	96
57	74
58	810
59	37
60	45
61	11
62	3
63	11
64	4
65	22
66	4
67	3
68	2
69	3
70	11
71	11
72	54
73	7
74	5
75	6
76	10
77	160
78	82
79	14
80	1
81	2
82	4
83	15
84	25
85	5
86	4
87	4
88	1
89	8
90	4
91	73
92	9
93	6
94	3
98	5
99	31
100	400
101	27
102	13
103	75
104	12
105	170
106	15
107	1
110	1
112	4
113	1
114	18
115	290
116	43
117	140
118	999
119	110
120	13
121	16
122	16
123	5
126	1
127	4
128	14
129	8
130	5
131	4
132	5
133	5
134	5
135	2
141	4
142	6
143	88
144	20
145	9
146	2
157	6
158	35
159	11
160	54
161	87
162	13
174	3
175	1
177	4
179	3
180	3
185	4
186	4
188	2
189	3
202	9
203	1
217	31
218	5
