Mass Spectrum: 1,5-Cyclooctanediol, diacetate
Formula: C12H20O4
CAS: 91882-55-2
Molecular weight: 228
m/z	intensity
24	0
26	2
27	41
28	3
29	32
30	1
31	6
36	0
37	0
38	1
39	46
40	10
41	108
42	30
43	999
44	45
45	7
46	0
47	0
50	1
51	4
52	3
53	28
54	130
55	105
56	23
57	65
58	45
59	15
60	2
61	46
62	1
63	1
64	0
65	9
66	18
67	161
68	64
69	67
70	67
71	69
72	11
73	1
74	0
75	0
76	0
77	12
78	16
79	103
80	262
81	63
82	105
83	93
84	116
85	29
86	11
87	1
88	0
89	0
91	7
92	14
93	64
94	6
95	8
96	3
97	64
98	107
99	10
100	2
101	2
102	0
103	17
104	3
105	1
106	2
107	13
108	106
109	29
110	25
111	25
112	8
113	1
114	0
115	2
116	0
117	0
118	0
121	2
122	2
123	0
124	21
125	15
126	107
127	45
128	3
129	0
130	0
131	0
132	1
133	0
135	3
136	0
137	0
138	0
139	0
140	18
141	2
142	0
143	1
146	0
149	0
150	8
151	1
152	0
153	2
154	0
157	0
158	0
167	2
168	10
169	5
170	0
171	1
172	0
185	0
186	0
200	0
201	0
202	0
203	0
210	0
213	0
215	0
228	0
229	0
230	0
231	0
232	0
