Mass Spectrum: 4-Methoxy-6-methyl-6,7-dihydro-4H-furo[3,2-c]pyran
Formula: C9H12O3
CAS: 91894-15-4
Molecular weight: 168
m/z	intensity
53	120
55	260
56	110
57	250
58	999
59	270
69	200
71	110
81	160
83	160
95	110
109	240
124	210
137	160
168	50
