Mass Spectrum: Amidithion
Formula: C7H16NO4PS2
CAS: 919-76-6
Molecular weight: 273
m/z	intensity
15	349
26	12
27	39
28	37
29	320
30	375
31	211
32	20
33	27
34	64
42	193
43	238
44	200
45	609
46	131
47	348
48	47
49	8
54	18
55	64
56	79
58	164
59	678
60	31
61	8
62	110
63	315
64	44
65	45
69	2
70	104
71	16
72	17
74	102
77	8
79	228
81	9
84	33
85	35
87	19
93	850
94	54
95	84
96	10
97	4
98	47
99	121
100	91
101	67
102	17
109	56
111	47
115	7
116	118
117	33
118	7
125	999
126	157
127	78
131	759
132	128
133	63
142	104
143	379
144	7
145	31
150	7
151	7
157	144
158	57
159	16
168	53
170	25
171	259
172	82
173	43
174	37
199	301
200	8
201	18
215	169
241	49
273	216
274	28
