Mass Spectrum: 2-Thiophenecarboxylic acid, octyl ester
Formula: C13H20O2S
CAS: 91905-71-4
Molecular weight: 240
m/z	intensity
26	19
27	148
28	4
29	191
30	6
31	3
36	6
37	11
38	29
39	392
40	31
41	335
42	125
43	233
44	38
45	53
47	3
49	3
50	17
51	19
52	6
53	46
54	29
55	207
56	181
57	75
58	25
59	6
67	25
68	37
69	141
70	158
71	35
72	3
77	8
81	22
82	51
83	168
84	119
85	53
95	6
97	13
110	9
111	999
112	149
113	67
126	3
127	9
128	736
129	633
130	82
131	29
141	7
169	3
240	41
241	7
242	3
