Mass Spectrum: 2-Ethylbutyl hexanoate
Formula: C12H24O2
CAS: 91933-26-5
Molecular weight: 200
m/z	intensity
15	3
18	1
26	4
27	91
28	28
29	138
30	3
31	12
32	1
38	1
39	56
40	10
41	214
42	114
43	751
44	27
45	12
50	1
51	3
52	1
53	16
54	13
55	218
56	201
57	77
58	42
59	30
60	116
61	27
62	1
65	1
66	1
67	8
68	6
69	289
70	58
71	326
72	20
73	62
74	23
75	4
77	1
79	1
80	3
81	7
82	3
83	18
84	913
85	272
86	29
87	63
88	6
89	7
95	1
96	1
97	8
98	13
99	999
100	73
101	22
102	1
107	1
110	2
111	2
112	2
113	1
114	4
115	6
116	49
117	94
118	6
127	3
128	2
129	25
130	5
131	5
141	1
142	5
144	8
145	1
155	1
171	10
172	8
