Mass Spectrum: Methyl 5-methyl-3-isoxazolepropanoate
Formula: C8H11NO3
CAS: 91945-49-2
Molecular weight: 169
m/z	intensity
42	144
43	61
44	4
45	55
50	29
51	44
52	65
53	69
54	198
55	634
56	80
58	23
59	247
65	21
66	21
67	48
68	150
69	85
77	36
79	36
80	23
81	34
82	410
83	36
84	21
85	19
87	36
94	29
96	160
97	19
109	518
110	999
111	80
112	19
115	27
137	34
138	255
139	21
169	226
170	21
