Mass Spectrum: 1(2H)-Naphthalenone, octahydro-6-hydroxy-8a-methyl-
Formula: C11H18O2
CAS: 91965-66-1
Molecular weight: 182
m/z	intensity
26	13
27	212
29	159
30	6
31	40
36	18
38	11
39	284
40	48
41	516
42	82
43	298
44	83
45	31
46	6
48	8
50	12
51	54
52	33
53	249
54	98
55	457
56	74
57	165
58	54
59	22
60	27
63	19
64	9
65	76
66	52
67	456
68	258
69	238
70	148
71	80
72	26
73	30
74	5
75	7
76	8
77	172
78	80
79	500
80	233
81	405
82	343
83	203
84	163
85	42
86	73
87	31
88	12
89	11
91	249
92	201
93	999
94	276
95	379
96	97
97	213
98	88
99	205
100	40
101	15
102	5
103	10
104	142
105	358
106	99
107	497
108	495
109	189
110	115
111	449
112	54
113	34
114	6
115	14
116	6
117	57
118	301
119	68
120	683
121	518
122	120
123	106
124	143
125	52
131	438
132	58
133	41
134	12
135	160
136	109
137	39
138	228
139	43
140	10
141	27
142	5
143	8
145	41
146	316
147	76
148	8
149	255
150	23
151	11
152	8
153	16
154	8
163	19
164	423
165	63
166	6
167	71
168	3
181	15
182	421
183	108
184	19
