Mass Spectrum: 1(2H)-Naphthalenone, octahydro-5-hydroxy-4a-methyl-
Formula: C11H18O2
CAS: 91965-64-9
Molecular weight: 182
m/z	intensity
26	17
27	257
28	21
29	236
30	20
31	68
36	8
37	3
38	11
39	232
40	89
41	494
42	137
43	317
44	73
45	42
46	7
47	5
48	10
49	22
50	10
51	42
52	33
53	207
54	65
55	517
56	160
57	192
58	26
59	12
60	9
62	5
63	29
64	5
65	71
66	51
67	351
68	151
69	228
70	199
71	61
72	10
73	10
74	4
75	4
76	5
77	98
78	34
79	228
80	83
81	189
82	301
83	205
84	104
85	27
86	6
87	5
91	105
92	30
93	221
94	130
95	225
96	67
97	265
98	999
99	102
100	7
101	3
103	7
104	9
105	44
106	16
107	127
108	109
109	91
110	66
111	937
112	246
113	81
114	11
115	9
117	13
118	23
119	20
120	30
121	132
122	76
123	102
124	24
125	293
126	50
127	5
129	4
130	4
131	71
132	11
133	18
134	11
135	170
136	133
137	91
138	105
139	59
140	9
141	4
145	7
146	87
147	13
148	7
149	190
150	25
151	24
152	14
153	7
154	10
162	3
163	9
164	239
165	36
166	4
167	76
168	13
180	11
182	365
183	70
184	8
185	3
