Mass Spectrum: 2-Thiophenecarboxylic acid, hexyl ester
Formula: C11H16O2S
CAS: 91968-83-1
Molecular weight: 212
m/z	intensity
26	21
27	162
28	6
29	169
30	8
31	6
36	8
37	16
38	41
39	419
40	29
41	225
42	105
43	172
44	27
45	69
49	9
50	19
51	14
52	3
53	41
54	12
55	151
56	172
57	99
58	27
59	3
67	9
68	6
69	75
70	6
71	6
77	9
79	6
81	25
82	41
83	109
84	111
85	47
86	6
111	999
112	81
113	51
114	3
127	9
128	581
129	388
130	57
131	19
141	3
169	3
179	3
212	45
213	3
214	1
