Mass Spectrum: Methyl 5-(2-furoyl)pentanoate
Formula: C11H14O4
CAS: 91971-41-4
Molecular weight: 210
m/z	intensity
55	70
59	50
68	40
74	20
81	30
83	20
85	20
87	20
95	680
110	999
111	130
123	120
133	70
136	40
150	20
179	50
182	20
192	20
210	30
