Mass Spectrum: Pyridine-3-carboxamide, N-(4-hydroxyphenyl)-
Formula: C12H10N2O2
CAS: 91973-67-0
Molecular weight: 214
m/z	intensity
33	5
36	0
37	2
38	9
39	28
40	17
41	16
42	12
43	19
44	7
45	0
50	59
51	176
52	70
53	69
54	9
55	14
56	2
57	4
59	0
61	0
62	5
63	9
64	4
65	11
66	2
67	2
68	4
69	2
70	2
71	1
73	1
74	3
75	3
76	9
78	524
79	59
80	19
81	60
82	4
83	2
84	0
85	0
89	0
90	0
91	2
92	1
93	2
94	5
95	0
97	1
102	0
103	1
106	999
107	72
108	51
109	10
110	24
111	2
112	1
113	0
115	0
117	0
118	0
119	0
120	0
121	0
123	2
124	1
125	0
127	0
128	0
129	0
130	0
131	0
134	0
135	1
136	6
137	0
139	0
140	1
141	0
142	0
149	0
152	0
155	1
156	1
157	0
165	0
167	0
168	1
171	2
176	0
178	4
179	0
183	0
184	1
185	1
195	1
196	0
197	0
209	0
210	2
212	21
214	605
215	77
216	6
