Mass Spectrum: Benzene, [3-(methoxymethoxy)-1-propenyl]-
Formula: C11H14O2
CAS: 91970-13-7
Molecular weight: 178
m/z	intensity
26	5
27	38
29	74
30	13
31	27
33	2
37	6
38	15
39	103
40	9
41	16
42	4
43	12
44	10
45	999
46	33
47	4
49	5
50	67
51	164
52	41
53	14
54	3
55	21
56	4
57	7
58	8
59	3
60	4
61	21
62	28
63	82
64	17
65	72
66	8
67	3
68	3
69	6
70	2
71	4
72	2
73	8
74	49
75	38
76	37
77	257
78	126
79	105
80	8
81	3
82	3
83	2
84	1
85	3
86	7
87	12
88	7
89	58
90	15
91	229
92	66
93	6
94	2
95	2
96	2
97	2
98	3
99	2
100	2
101	7
102	55
103	150
104	114
105	583
106	108
107	12
108	2
113	4
114	14
115	353
116	181
117	579
118	324
119	42
120	8
121	28
122	8
123	1
127	2
128	3
129	3
130	4
131	95
132	54
133	65
134	326
135	42
136	6
137	1
141	2
145	18
146	69
147	15
148	5
149	0
163	2
164	0
177	1
178	41
179	5
180	0
