Mass Spectrum: 4-tert-Butoxybutan-1-ol, TMS derivative
Formula: C11H26O2Si
CAS: 91988-79-3
Molecular weight: 218
m/z	intensity
41	155
42	30
43	130
44	40
45	110
47	40
55	120
56	45
57	999
58	70
59	90
60	10
61	30
71	130
72	60
73	570
74	60
75	300
76	30
77	25
85	20
86	15
87	20
91	30
99	20
101	70
102	15
103	255
104	25
115	20
116	30
117	25
129	20
131	20
144	20
145	440
146	50
147	110
148	10
161	150
162	35
163	20
218	3
219	0
