Mass Spectrum: 1-Pentanol, 5-tert-butoxy-, TMS derivative
Formula: C12H28O2Si
CAS: 91988-80-6
Molecular weight: 232
m/z	intensity
41	270
42	40
43	140
44	80
45	220
46	10
47	30
55	70
56	50
57	999
58	90
59	150
60	25
61	30
67	30
68	40
69	590
70	40
71	65
72	40
73	310
74	40
75	250
76	30
77	20
83	80
84	20
85	350
86	40
87	60
88	10
89	40
91	50
99	50
101	50
103	260
104	20
105	120
106	20
131	90
132	20
143	40
145	20
159	320
160	50
161	35
175	80
176	20
