Mass Spectrum: Acetic acid, 5-hydroxy-pent-3-ynyl ester
Formula: C7H10O3
CAS: 91991-57-0
Molecular weight: 142
m/z	intensity
26	11
27	66
28	16
29	60
30	4
31	41
37	9
38	21
39	186
40	25
41	49
42	39
43	999
44	35
45	8
49	4
50	31
51	48
52	308
53	133
54	224
55	46
56	8
57	5
58	2
59	1
60	1
61	60
62	6
63	13
64	10
65	84
66	11
67	5
68	17
69	14
70	14
71	21
72	2
73	55
74	3
77	1
78	1
79	8
80	5
81	274
82	393
83	31
84	7
85	2
86	1
87	3
91	1
95	3
96	3
97	5
98	2
99	61
100	28
101	2
109	2
110	1
111	2
112	0
113	1
114	4
115	1
124	5
125	2
141	0
142	0
