Mass Spectrum: 3-Bromo-3'-methylazobenzene
Formula: C13H11BrN2
CAS: 92022-19-0
Molecular weight: 274
m/z	intensity
27	3
28	2
37	1
38	6
39	34
40	2
41	11
50	30
51	19
52	8
53	2
61	1
62	5
63	27
64	10
65	127
66	7
74	7
75	50
76	81
77	14
78	6
79	1
82	1
87	1
88	1
89	20
90	16
91	999
92	83
93	2
102	1
103	1
104	7
105	1
106	1
107	1
115	3
119	322
120	26
121	1
126	1
128	3
129	1
131	1
139	2
141	2
150	1
151	4
152	46
153	6
155	179
156	11
157	173
158	11
163	1
164	2
165	46
166	23
167	10
168	1
171	2
173	1
183	45
184	3
185	44
186	3
193	1
194	1
245	2
246	1
247	2
248	1
274	275
275	42
276	273
277	41
278	3
