Mass Spectrum: 3'-Bromo-2-methylazobenzene
Formula: C13H11BrN2
CAS: 92022-18-9
Molecular weight: 274
m/z	intensity
27	4
28	8
37	1
38	4
39	33
40	3
41	10
50	24
51	21
52	10
53	2
61	1
62	4
63	24
64	10
65	126
66	8
74	6
75	40
76	63
77	18
78	11
79	4
80	1
82	1
83	1
87	1
88	1
89	20
90	14
91	999
92	85
93	3
97	1
102	2
103	2
104	9
105	1
106	4
107	3
115	2
118	1
119	265
120	22
128	2
129	1
131	1
137	1
138	1
139	2
140	1
141	1
151	3
152	28
153	4
155	118
156	8
157	113
158	7
163	1
164	2
165	36
166	18
167	10
168	2
169	1
171	3
173	2
183	21
184	2
185	20
186	1
192	1
193	3
194	9
195	20
196	3
273	16
274	271
275	58
276	269
277	39
278	3
