Mass Spectrum: 4-Bromo-3-methylazobenzene
Formula: C13H11BrN2
CAS: 92022-23-6
Molecular weight: 274
m/z	intensity
26	2
27	10
28	5
37	3
38	12
39	50
40	8
41	4
49	1
50	30
51	151
52	15
53	2
61	4
62	21
63	95
64	48
65	17
66	3
73	1
74	9
75	14
76	20
77	999
78	89
79	4
80	2
81	1
82	2
85	1
86	4
87	6
88	7
89	254
90	368
91	38
92	3
93	8
101	1
102	5
103	3
104	8
105	527
106	42
107	2
114	1
115	9
116	1
117	5
119	5
126	1
127	2
128	9
129	1
137	4
138	4
139	5
140	1
141	4
142	1
143	8
145	7
150	1
151	9
152	73
153	10
154	2
163	3
164	7
165	118
166	44
167	23
168	6
169	784
170	64
171	774
172	59
173	2
179	1
184	1
185	5
186	1
187	5
193	2
194	2
195	1
196	1
197	309
198	25
199	303
200	24
201	1
245	2
246	5
247	2
248	4
272	1
274	882
275	131
276	862
277	129
278	9
