Mass Spectrum: 3,5-Dinitro-N'-salicylidenesalicylohydrazide
Formula: C14H10N4O7
CAS: 92061-40-0
Molecular weight: 346
m/z	intensity
39	494
41	129
43	192
44	69
45	51
46	11
50	104
51	198
52	117
53	173
55	121
56	29
57	61
58	18
60	48
62	179
63	170
64	106
65	122
66	33
67	29
68	28
69	53
70	26
71	35
73	56
74	17
75	30
77	363
78	196
80	204
81	37
82	12
83	19
84	9
85	5
87	6
89	24
90	79
91	332
92	63
93	38
94	11
95	10
97	4
102	43
103	16
104	22
105	112
106	64
107	166
108	68
109	24
115	29
116	52
117	62
119	999
120	519
121	60
122	12
123	5
127	23
128	41
129	3
135	186
136	118
137	6
143	129
144	18
149	10
152	23
165	212
166	14
180	16
181	10
193	17
194	64
195	23
196	4
210	85
211	360
212	31
227	57
228	220
229	19
316	10
346	108
347	15
