Mass Spectrum: 6-Chloro-4-phenyl-quinazoline 3-oxide
Formula: C14H9ClN2O
CAS: 92104-27-3
Molecular weight: 256
m/z	intensity
50	350
51	591
52	112
53	11
54	2
55	27
56	10
57	4
58	4
61	72
62	215
63	410
64	82
65	91
66	26
67	13
68	30
69	55
70	16
73	126
74	333
75	462
76	185
77	999
78	88
81	61
82	314
83	61
84	28
85	60
86	190
87	264
88	118
89	85
90	37
91	19
94	14
95	13
96	68
97	63
98	132
99	148
100	225
101	79
102	54
103	20
104	47
105	29
109	31
110	210
111	120
112	74
113	107
114	68
115	24
116	5
117	2
120	5
121	7
122	35
123	43
124	57
125	76
126	93
127	44
128	12
129	3
130	2
134	12
135	12
136	98
137	134
138	118
139	108
140	86
141	16
142	2
147	13
148	8
149	40
150	81
151	109
152	50
153	26
154	9
155	6
156	1
160	4
161	39
162	104
163	610
164	275
165	123
166	97
167	59
168	9
169	2
173	24
174	22
175	42
176	98
177	247
178	45
179	13
180	3
181	2
185	2
186	3
187	4
188	34
189	36
190	178
191	77
192	231
193	119
194	40
198	8
199	62
200	33
201	48
202	190
203	134
204	286
205	149
206	23
207	1
211	9
212	6
213	6
214	8
215	13
216	4
219	9
220	530
221	214
222	21
225	4
226	42
227	305
228	147
229	161
230	59
231	22
232	3
237	2
238	30
239	595
240	140
241	209
242	40
243	9
253	2
254	22
255	690
256	656
257	288
258	214
259	23
260	1
