Mass Spectrum: 1-Carbobenzyloxy-3-hydroxyproline amide
Formula: C13H16N2O4
CAS: 92109-21-2
Molecular weight: 264
m/z	intensity
41	41
42	17
43	21
44	64
45	8
46	1
47	0
48	1
49	7
50	8
51	22
52	7
53	4
54	3
55	10
56	13
57	29
58	22
59	2
60	1
61	1
62	4
63	18
64	8
65	92
66	6
67	5
68	25
69	11
70	6
71	5
72	2
73	4
74	2
75	1
76	2
77	20
78	4
79	14
80	1
81	1
82	3
83	6
84	16
85	9
86	49
87	5
88	3
89	24
91	999
92	100
93	5
94	1
95	2
96	2
97	3
98	2
99	1
100	3
101	2
102	0
103	1
104	1
105	4
106	2
107	10
108	11
109	1
110	2
111	3
112	4
113	2
114	1
115	0
117	1
118	1
119	0
120	0
123	0
125	1
126	0
127	0
128	1
129	98
130	15
131	2
132	1
133	0
138	1
139	1
141	0
146	0
147	0
149	1
156	1
157	7
158	3
159	1
167	0
173	2
174	0
175	2
176	156
177	19
178	2
182	1
202	3
203	1
219	2
220	156
221	22
222	2
246	0
264	29
265	4
