Mass Spectrum: 1,3-Pentanedione, 2,4-dimethyl-1-phenyl-
Formula: C13H16O2
CAS: 92115-31-6
Molecular weight: 204
m/z	intensity
26	4
27	126
28	40
29	11
30	0
31	1
36	0
37	0
38	2
39	34
40	10
41	87
42	10
43	584
44	16
45	3
50	26
51	135
52	13
53	4
54	0
55	53
56	30
57	4
58	0
59	1
61	0
62	1
63	5
64	1
65	5
66	0
67	1
68	0
69	8
70	6
71	239
72	10
73	0
74	5
75	5
76	18
77	422
78	38
79	14
80	0
81	1
82	1
83	8
84	0
85	1
87	0
88	0
89	3
90	1
91	11
92	4
93	0
94	0
95	0
96	0
97	0
98	0
99	2
101	1
102	2
103	8
104	4
105	999
106	68
107	5
109	0
110	0
111	0
114	0
115	13
116	4
117	9
118	1
119	1
121	0
122	0
123	0
124	0
125	0
126	0
127	1
128	0
129	0
131	2
132	1
133	117
134	409
135	35
136	2
137	0
139	0
141	0
142	1
143	0
145	0
151	0
155	0
156	0
157	0
159	0
160	0
161	35
162	4
163	0
165	0
168	0
169	0
174	0
175	0
176	26
177	3
178	0
181	0
183	0
185	0
186	0
187	0
189	1
197	0
202	0
203	0
204	67
205	10
206	0
