Mass Spectrum: 3-(1-Methyl-3-pyrrolidinyl)pyridine
Formula: C10H14N2
CAS: 92118-22-4
Molecular weight: 162
m/z	intensity
42	220
51	30
55	7
57	999
70	2
77	17
78	14
80	11
82	10
84	2
92	14
93	6
106	5
117	25
118	38
119	72
130	13
133	3
134	1
158	4
161	37
162	140
