Mass Spectrum: 2-(1-Methyl-3-pyrrolidinyl)pyridine
Formula: C10H14N2
CAS: 92118-21-3
Molecular weight: 162
m/z	intensity
42	390
51	160
55	50
57	870
70	100
77	53
78	160
80	140
82	80
84	40
92	50
93	110
106	999
117	120
118	300
119	130
133	80
134	80
161	35
162	180
