Mass Spectrum: 2,4-Diamino-5-chloro-N,N-diethyl-6-quinazolinesulfonamide
Formula: C12H16ClN5O2S
CAS: 92144-21-3
Molecular weight: 329
m/z	intensity
42	999
43	561
44	559
45	2
46	4
48	18
49	9
50	10
51	11
52	51
53	22
54	25
56	163
57	60
58	41
60	5
62	84
63	28
64	44
65	18
66	11
68	33
69	11
70	24
71	13
72	49
73	11
74	20
75	11
76	29
77	18
78	8
79	6
80	5
81	0
82	0
83	0
84	2
85	2
86	9
87	14
88	110
89	82
90	27
91	0
92	18
94	3
95	1
97	22
98	7
99	11
100	4
101	2
103	30
104	19
105	19
106	1
107	2
108	0
109	7
110	1
111	3
112	4
114	10
115	30
116	33
117	11
118	3
120	13
121	1
122	3
124	127
125	13
126	34
127	2
128	1
130	104
131	20
132	9
133	1
135	1
136	1
137	1
139	32
140	0
141	19
142	4
143	2
144	0
146	0
148	1
149	5
150	7
151	13
152	15
153	5
154	2
155	0
157	47
158	37
159	18
160	2
161	0
164	1
165	0
166	31
167	13
168	11
169	5
171	1
172	0
173	0
174	0
175	3
176	3
177	4
178	2
179	1
181	2
183	2
186	0
191	1
193	171
194	129
195	54
196	43
197	1
199	1
201	0
202	0
207	2
209	97
210	11
211	40
212	3
223	2
224	1
230	0
241	9
243	2
254	0
257	144
258	21
259	67
260	8
261	1
285	5
287	1
312	0
313	3
314	69
315	6
316	9
317	1
318	0
329	349
330	65
331	140
332	20
333	4
