Mass Spectrum: 7-tert-Butyl-3,4,5,6(2H)-tetrahydroazepine
Formula: C10H19N
CAS: 92144-55-3
Molecular weight: 153
m/z	intensity
41	272
42	101
54	168
55	218
57	258
68	141
69	288
82	150
83	89
84	99
96	696
97	98
110	348
111	999
112	78
124	280
125	398
126	39
138	699
139	80
152	59
153	149
154	19
