Mass Spectrum: Aniline, N-benzyloxycarbonyl-4-bromo-
Formula: C14H12BrNO2
CAS: 92159-87-0
Molecular weight: 305
m/z	intensity
33	1
34	1
36	5
37	13
38	33
39	82
40	29
41	25
42	3
43	7
44	17
45	8
47	0
48	0
50	35
51	50
52	21
53	5
54	1
55	4
56	2
57	3
58	0
60	0
61	8
62	24
63	76
64	44
65	128
66	7
67	1
68	0
69	2
70	1
71	1
72	0
73	1
74	8
75	9
76	10
77	38
78	9
79	20
80	5
81	3
82	3
83	1
84	0
85	1
86	1
87	2
89	33
91	999
92	73
93	3
95	1
96	0
97	0
98	1
99	1
100	0
101	0
103	0
105	6
106	2
107	6
108	4
109	0
112	0
113	0
115	0
117	5
118	1
119	5
120	0
124	0
125	0
126	0
127	0
128	0
129	0
130	0
131	0
133	0
134	0
135	0
138	0
141	0
143	12
145	10
146	0
152	0
153	0
155	2
157	2
158	0
159	0
160	0
161	1
163	0
164	0
165	0
167	0
169	4
170	11
171	8
172	10
173	3
174	0
180	0
181	0
182	0
184	1
185	0
186	0
187	0
189	0
197	6
198	0
199	5
200	0
226	0
227	0
258	0
260	2
261	12
262	3
263	12
264	1
274	0
301	0
303	0
305	16
306	2
307	18
308	2
309	0
