Mass Spectrum: 3-Buten-2-amine, 4-(2,6,6-trimethyl-1-cyclohexen-1-yl)-
Formula: C13H23N
CAS: 92158-04-8
Molecular weight: 193
m/z	intensity
26	10
27	123
28	150
29	149
30	73
31	6
38	4
39	150
40	36
41	438
42	105
43	191
44	794
45	35
46	5
50	9
51	41
52	26
53	139
54	74
55	273
56	418
57	999
58	203
59	10
63	18
64	11
65	90
66	37
67	170
68	170
69	333
70	408
71	67
72	47
73	8
74	7
75	14
76	6
77	216
78	54
79	307
80	81
81	275
82	112
83	53
84	37
85	36
86	112
87	11
88	5
89	14
90	6
91	319
92	99
93	306
94	152
95	211
96	86
97	26
98	22
99	8
100	6
101	4
102	7
103	23
104	18
105	241
106	124
107	289
108	234
109	335
110	108
111	78
112	13
113	6
114	4
115	19
116	10
117	29
118	22
119	124
120	115
121	147
122	160
123	170
124	163
125	29
126	6
127	5
128	8
129	8
130	9
131	21
132	17
133	118
134	46
135	260
136	169
137	118
138	72
139	9
140	5
141	5
144	5
145	9
146	17
147	61
148	35
149	61
150	205
151	109
152	26
153	5
158	6
159	10
160	9
161	944
162	126
163	39
164	47
165	328
166	54
167	7
168	9
169	2
170	3
171	4
173	3
174	5
175	7
176	129
177	28
178	848
179	107
180	25
181	5
191	9
192	58
193	146
194	25
195	7
