Mass Spectrum: Benzonitrile, 2-chloro-6-(phenylmethoxy)-
Formula: C14H10ClNO
CAS: 92161-40-5
Molecular weight: 243
m/z	intensity
18	1
26	5
27	6
37	8
38	25
39	92
40	5
41	18
47	4
49	10
50	23
51	46
52	11
53	3
61	15
62	36
63	62
64	19
65	173
66	8
73	11
74	8
75	14
76	6
77	13
78	2
85	2
86	4
87	7
88	16
89	52
90	2
91	999
92	68
93	2
97	6
98	7
99	5
100	11
101	2
102	1
105	2
109	1
117	9
124	25
125	3
126	8
127	1
136	1
151	2
152	5
153	1
154	1
177	1
178	1
179	1
243	42
244	7
245	14
246	2
