Mass Spectrum: Benzeneethanamine, N-(3-methylbutylidene)-
Formula: C13H19N
CAS: 92195-46-5
Molecular weight: 189
m/z	intensity
26	5
27	112
28	5
29	18
30	43
31	3
34	0
38	6
39	67
40	10
41	117
42	999
43	117
44	2
50	10
51	44
52	11
53	12
54	31
55	42
56	467
57	32
62	3
63	14
65	41
66	4
68	7
69	33
70	8
76	3
77	82
78	26
79	46
80	5
82	7
84	3
89	6
91	62
92	6
98	176
99	13
102	4
103	35
104	63
105	152
106	11
132	17
147	165
148	18
174	17
188	3
