Mass Spectrum: 2-Pentene, 1-bromo-3,4-dimethyl-
Formula: C7H13Br
CAS: 922-99-6
Molecular weight: 176
m/z	intensity
26	12
27	166
28	20
29	81
30	2
31	1
36	2
37	5
38	15
39	180
40	33
41	344
42	33
43	189
44	7
45	4
46	3
47	2
49	3
50	28
51	52
52	28
53	162
54	55
55	966
56	58
57	47
58	2
59	1
60	1
61	2
62	6
63	13
64	3
65	40
66	21
67	131
68	24
69	179
70	33
71	93
72	8
73	2
74	3
75	2
76	1
77	42
78	8
79	103
80	18
81	320
82	84
83	18
84	2
85	2
86	1
87	4
88	1
89	2
90	2
91	9
92	4
93	5
94	2
95	21
96	96
97	999
98	79
99	7
105	2
106	1
107	3
108	1
109	1
119	5
121	7
122	1
123	1
130	1
131	1
132	2
133	9
134	3
135	10
136	3
137	1
161	3
163	3
175	1
176	22
177	4
178	25
179	2
