Mass Spectrum: Acetamide, N,N'-ethylenebis(N-nitro-
Formula: C6H10N4O6
CAS: 922-89-4
Molecular weight: 234
m/z	intensity
33	5
34	1
38	1
39	18
43	999
46	25
50	1
51	1
52	1
55	15
56	6
57	3
58	6
60	3
61	4
66	1
68	1
69	1
70	2
71	3
72	28
73	3
74	1
75	1
76	1
77	1
81	1
82	1
84	9
85	2
86	1
87	1
88	1
90	13
91	1
99	1
101	2
102	1
103	1
104	1
105	1
106	1
117	3
126	1
132	4
148	1
