Mass Spectrum: .beta.-Benzamido-.beta.-[2-furyl]propionic acid
Formula: C14H13NO4
CAS: 92200-36-7
Molecular weight: 259
m/z	intensity
41	51
42	25
43	24
44	12
45	16
46	0
50	38
51	170
52	19
53	19
54	7
55	17
56	2
57	2
59	1
60	2
62	2
63	10
64	6
65	53
66	25
67	14
68	9
69	11
70	2
71	1
74	6
75	8
76	26
77	622
78	46
79	8
80	9
81	11
82	9
83	3
84	3
85	0
86	5
89	1
91	2
92	46
93	61
94	123
95	18
96	4
97	41
98	6
99	2
100	2
103	4
104	23
105	999
106	105
108	3
109	11
110	13
111	4
112	1
115	3
119	0
120	3
121	17
122	12
123	0
126	0
128	0
130	2
135	3
136	39
137	6
138	6
139	9
140	0
141	0
154	703
155	54
156	9
157	7
168	7
169	1
170	2
173	0
184	52
185	19
186	2
196	2
198	2
200	11
201	1
212	31
213	23
214	3
242	3
259	13
260	4
