Mass Spectrum: 3-Phenyl-6,7-dicarboxyindan-1-one
Formula: C17H12O5
CAS: 92241-99-1
Molecular weight: 296
m/z	intensity
45	999
65	979
77	510
91	408
104	224
135	183
147	204
148	306
185	204
201	81
210	122
218	122
219	244
295	163
296	204
