Mass Spectrum: 5-Hydroxy-4-phenylbicyclo[3.3.0]octa-3,6-diene-2,8-dione
Formula: C14H10O3
CAS: 92241-95-7
Molecular weight: 226
m/z	intensity
65	280
66	140
77	320
90	250
91	999
92	200
110	350
111	150
121	300
122	350
123	120
178	30
180	50
226	20
