Mass Spectrum: 4[1H]-Pyridone 1-benzyl-2,6-dimethyl-
Formula: C14H15NO
CAS: 92247-78-4
Molecular weight: 213
m/z	intensity
41	44
42	24
43	4
44	0
45	1
47	4
49	27
50	14
51	51
52	20
53	29
54	11
55	9
56	2
57	2
58	1
60	1
61	0
62	6
63	27
65	132
66	9
67	9
68	7
69	2
70	0
71	3
72	1
73	0
74	1
75	2
76	3
77	17
78	9
79	4
80	1
81	1
82	2
84	22
86	8
87	0
88	1
89	25
91	999
92	67
94	5
96	4
97	0
101	0
102	2
103	3
104	9
105	1
107	9
108	2
109	2
111	1
115	5
116	1
117	0
122	0
123	0
127	1
128	2
129	2
130	1
131	1
135	1
136	1
141	1
142	1
143	1
144	1
154	1
156	1
158	0
167	1
168	1
169	1
170	2
172	1
180	0
182	0
184	5
185	38
186	5
198	3
200	0
210	0
211	0
213	160
214	33
215	3
