Mass Spectrum: Cyclohexanecarboxylic acid, 2-benzyl-5-oxo-
Formula: C14H16O3
CAS: 92251-81-5
Molecular weight: 232
m/z	intensity
33	4
34	11
36	9
39	146
40	201
41	121
42	41
43	74
44	247
45	27
46	3
50	22
51	66
52	21
53	44
54	39
55	117
56	20
57	30
58	2
59	4
60	4
61	1
62	7
63	36
64	25
65	152
66	19
67	61
68	27
69	46
70	33
71	45
72	6
73	79
74	10
75	6
76	9
77	69
78	43
79	59
80	18
81	22
82	18
83	19
84	9
85	5
86	3
87	2
88	0
89	29
91	999
92	208
93	28
94	11
95	66
96	48
97	53
98	14
99	12
100	5
101	15
102	12
103	21
104	85
105	41
106	24
107	17
108	8
109	8
110	18
111	6
112	11
113	12
114	11
115	78
116	32
117	197
118	81
119	12
120	2
121	3
122	9
123	74
124	11
125	7
126	4
127	20
128	48
129	78
130	36
131	48
132	32
133	12
134	3
135	3
136	3
137	0
139	1
140	86
141	77
142	27
143	17
144	18
145	15
146	4
147	3
148	0
149	3
150	5
151	0
152	5
153	3
154	6
155	7
156	2
157	10
158	10
159	32
160	9
161	2
162	4
163	3
164	2
165	2
167	5
168	8
169	17
170	19
171	18
172	6
173	2
174	1
175	1
176	4
177	1
178	6
183	1
184	4
185	7
186	40
187	98
188	46
189	6
191	5
196	2
197	3
198	0
203	5
204	3
205	2
207	0
213	0
214	38
215	7
216	3
230	1
231	0
232	199
233	28
234	3
