Mass Spectrum: 1-Benzoylamino-1-cyanocyclohexane
Formula: C14H16N2O
CAS: 92255-24-8
Molecular weight: 228
m/z	intensity
41	74
42	16
44	52
45	0
47	10
49	64
51	245
52	24
53	39
54	22
55	20
56	4
57	1
59	0
61	0
62	0
63	5
64	3
65	6
66	7
67	9
68	1
69	8
71	6
73	0
74	6
75	2
77	577
78	47
79	79
80	13
81	16
82	2
84	28
86	21
88	4
89	0
91	2
92	4
93	2
95	4
96	5
97	6
98	3
99	0
100	0
102	1
105	999
106	87
108	54
110	2
115	0
116	0
121	68
122	237
123	71
125	59
126	3
128	0
129	0
130	1
132	0
133	0
134	2
135	0
143	0
145	0
146	2
147	0
148	3
149	0
151	10
158	0
160	16
161	1
168	1
171	1
172	1
173	2
174	8
175	2
182	4
183	5
184	2
186	2
187	3
188	7
198	0
199	22
200	5
201	10
202	4
203	0
211	5
212	0
213	1
227	9
228	86
229	17
230	1
