Mass Spectrum: Tetradecanedioic acid, monoethyl ester
Formula: C16H30O4
CAS: 92264-70-5
Molecular weight: 286
m/z	intensity
26	4
27	64
28	29
29	183
30	6
31	13
36	1
37	1
38	1
39	41
40	9
41	333
42	74
43	251
44	11
45	114
46	3
47	2
50	2
51	3
52	2
53	28
54	33
55	492
56	76
57	131
58	16
59	39
60	229
61	212
62	6
63	2
64	1
65	7
66	5
67	94
68	67
69	298
70	218
71	86
72	7
73	199
74	31
75	9
76	2
77	7
78	4
79	32
80	37
81	117
82	54
83	257
84	431
85	74
86	9
87	58
88	999
89	247
90	14
91	12
92	4
93	37
94	41
95	114
96	73
97	235
98	946
99	86
100	12
101	313
102	38
103	4
104	3
105	9
106	4
107	40
108	41
109	64
110	50
111	132
112	327
113	36
114	14
115	64
116	9
117	4
118	1
119	20
120	16
121	73
122	21
123	47
124	40
125	88
126	99
127	19
128	11
129	55
130	18
131	5
132	1
133	11
134	10
135	40
136	21
137	38
138	40
139	87
140	91
141	20
142	11
143	42
144	30
145	5
146	1
147	11
148	12
149	49
150	19
151	27
152	38
153	32
154	47
155	11
156	7
157	39
158	39
159	6
160	2
161	10
162	17
163	85
164	14
165	19
166	24
167	11
168	11
169	5
170	11
171	46
172	21
173	3
174	0
175	8
176	12
177	36
178	13
179	19
180	40
181	113
182	17
183	5
184	14
185	62
186	15
187	10
188	1
189	1
190	0
191	0
192	2
193	7
194	89
195	46
196	14
197	8
198	7
199	19
200	4
201	1
202	1
203	4
204	14
205	8
206	2
207	3
208	2
209	1
210	1
211	6
212	7
213	10
214	22
215	4
216	0
217	0
218	0
219	1
220	0
221	15
222	182
223	47
224	12
225	12
226	5
227	181
228	29
229	2
230	0
238	1
239	5
240	13
241	492
242	90
243	11
244	1
245	0
250	7
251	1
261	0
267	3
268	23
269	71
270	12
271	1
286	1
287	4
288	0
