Mass Spectrum: Propan-2-one, 1-cyclododecyl-
Formula: C15H28O
CAS: 92279-34-0
Molecular weight: 224
m/z	intensity
34	6
36	2
39	73
40	136
41	358
43	999
44	38
52	5
53	49
54	136
55	396
56	63
57	82
58	145
59	188
60	9
65	13
66	30
67	349
68	180
69	207
70	44
71	101
72	13
77	24
78	1
79	52
80	89
81	385
82	458
83	257
84	76
85	24
86	4
91	28
92	6
93	75
94	58
95	301
96	408
97	246
98	40
99	5
100	4
105	16
107	39
108	36
109	197
110	100
111	72
112	11
113	14
114	2
119	11
120	6
121	49
122	108
123	100
124	77
125	36
126	8
127	4
129	8
131	2
133	11
134	4
135	53
136	35
137	45
138	71
139	20
141	2
142	7
147	11
149	28
150	5
151	9
152	7
155	24
160	3
161	30
162	47
163	49
164	96
165	38
166	862
167	130
168	9
176	2
177	16
178	7
180	26
181	22
191	6
194	6
195	2
196	2
197	4
203	3
204	7
206	7
207	3
209	6
210	2
221	12
222	33
223	22
224	94
225	12
