Mass Spectrum: 1-[1-(2,2-Dichlorovinylimino)-2,2-dimethylpropyl]-3-(p-tolyl)thiourea
Formula: C15H19Cl2N3S
CAS: 92277-61-7
Molecular weight: 343
m/z	intensity
35	32
36	42
37	38
38	76
39	518
40	84
41	999
42	132
43	43
44	55
45	65
46	8
47	43
48	34
49	36
50	97
51	174
52	104
53	144
54	54
55	69
57	875
58	101
59	68
60	79
61	45
62	57
63	116
64	64
65	225
66	36
67	27
68	57
69	23
70	57
71	13
72	17
73	12
74	43
75	54
76	58
77	294
78	115
79	157
80	22
81	10
82	38
83	85
84	57
85	72
86	20
87	18
88	20
89	78
90	47
91	304
92	41
93	11
94	10
95	41
96	13
97	20
98	5
99	6
100	6
101	7
102	10
103	12
104	39
106	153
107	50
108	13
109	15
111	91
112	19
113	40
114	11
115	10
116	17
117	12
118	13
119	9
121	17
122	47
123	32
124	27
125	3
126	7
127	4
128	7
129	4
131	43
132	21
133	9
134	2
135	2
136	9
137	7
138	10
139	5
140	1
141	3
142	7
143	6
144	5
145	3
146	3
148	38
149	30
150	37
151	3
152	5
153	1
154	2
155	1
156	1
159	4
161	2
162	4
163	5
164	7
165	30
166	7
167	1
170	1
172	1
173	1
175	6
176	3
177	1
178	8
179	2
180	5
181	2
194	1
231	1
237	3
239	2
260	1
308	7
343	1
