Mass Spectrum: Borinic acid, diethylthio-, methyl ester
Formula: C5H13BS
CAS: 92276-84-1
Molecular weight: 116
m/z	intensity
26	20
27	103
28	34
29	78
30	2
33	1
36	8
37	29
38	12
39	46
40	42
41	107
42	7
43	2
44	7
45	68
46	19
47	58
48	13
49	4
50	7
51	8
52	7
53	29
54	0
55	1
56	14
57	45
58	103
59	373
60	15
61	22
62	1
63	2
64	1
65	1
66	0
67	9
68	37
69	63
70	8
71	26
72	12
73	31
74	2
75	6
77	1
80	3
81	3
82	2
83	1
84	2
85	8
86	241
87	999
88	90
89	50
90	3
91	2
93	1
94	2
95	0
96	3
97	9
98	1
101	1
102	1
104	2
105	5
106	1
107	2
109	0
110	0
111	0
113	1
114	1
115	205
116	859
117	68
118	40
119	6
