Mass Spectrum: 3-Benzoylpyrrolidin-2-one
Formula: C11H11NO2
CAS: 92288-11-4
Molecular weight: 189
m/z	intensity
26	26
27	144
29	38
30	38
38	24
39	131
40	17
41	144
42	13
43	151
44	13
50	111
51	334
52	37
53	20
54	17
55	144
56	92
57	37
58	17
62	10
63	41
64	18
65	34
66	9
67	21
68	9
69	25
71	17
74	33
75	28
76	43
77	773
78	83
79	22
81	24
83	24
84	216
85	16
89	16
91	30
95	16
97	13
102	12
103	21
104	14
105	999
106	80
107	9
109	7
110	7
111	7
112	14
115	52
116	14
117	28
118	8
119	10
128	24
129	24
130	12
131	24
132	22
133	31
142	7
143	7
144	12
145	12
147	20
161	90
162	8
188	8
189	178
190	24
