Mass Spectrum: Tripropyl phosphite
Formula: C9H21O3P
CAS: 923-99-9
Molecular weight: 208
m/z	intensity
25	1
26	7
27	140
29	9
30	0
31	23
33	0
37	4
38	7
39	67
41	235
42	63
43	613
44	20
45	123
46	3
47	26
48	2
49	1
50	9
51	12
52	15
53	1
54	0
55	2
56	1
57	4
58	8
59	63
60	2
61	0
62	1
63	3
64	0
65	285
66	2
67	1
68	0
69	3
70	1
71	0
72	0
73	1
74	3
75	1
76	5
77	18
78	77
79	6
80	2
81	5
82	999
83	226
84	6
85	1
87	1
89	0
90	1
91	10
92	12
93	0
94	0
96	11
97	0
99	18
101	0
102	0
104	0
105	16
106	4
107	458
108	24
109	257
110	7
111	1
112	0
115	1
119	0
121	0
122	0
123	48
124	579
125	107
126	6
127	1
128	0
133	0
134	2
135	0
138	0
139	1
140	1
141	4
142	0
147	0
148	1
149	73
150	5
151	1
152	3
153	4
154	10
155	1
157	0
165	0
166	49
167	43
168	3
169	0
170	0
171	0
173	0
183	3
184	0
185	0
186	0
187	0
189	0
193	1
201	0
207	0
208	43
209	5
210	0
