Mass Spectrum: 3-Octanone, 2-methyl-
Formula: C9H18O
CAS: 923-28-4
Molecular weight: 142
m/z	intensity
26	17
27	231
28	37
29	160
30	4
31	6
34	0
36	0
37	3
38	7
39	104
40	18
41	257
42	64
43	999
44	43
45	11
46	0
47	0
48	0
49	0
50	2
51	4
52	2
53	12
54	4
55	67
56	11
57	30
58	17
59	11
60	51
61	4
62	0
63	1
64	0
65	2
66	0
67	5
68	5
69	11
70	14
71	404
72	29
73	25
74	3
75	0
77	1
78	0
79	1
80	2
81	8
82	4
83	3
84	1
85	9
86	70
87	11
88	0
89	1
91	0
95	0
96	0
97	1
98	7
99	250
100	23
101	1
102	1
103	0
105	0
109	0
110	0
111	0
113	4
114	0
115	0
116	0
117	2
125	0
127	0
141	0
142	41
143	7
144	0
