Mass Spectrum: Butanoic acid, 5-methyl-2-(1-methylethyl)cyclohexyl ester
Formula: C14H26O2
CAS: 92319-43-2
Molecular weight: 226
m/z	intensity
26	5
27	157
29	92
30	1
31	4
37	1
38	2
39	87
40	14
41	388
42	46
43	825
44	21
45	7
49	0
50	1
51	7
52	4
53	46
54	41
55	288
56	42
57	106
58	7
59	5
60	10
63	1
64	0
65	14
66	8
67	142
68	68
69	164
70	40
71	999
72	39
73	9
74	0
75	0
77	17
78	4
79	35
80	52
81	507
82	223
83	233
84	22
85	13
86	7
87	3
88	2
89	30
90	1
91	10
92	2
93	15
94	89
95	867
96	218
97	53
98	6
99	6
100	1
105	1
107	3
108	1
109	62
110	45
111	14
112	7
113	17
114	4
115	0
119	1
120	0
121	5
122	2
123	272
124	26
125	2
127	1
128	11
129	1
135	0
136	2
137	30
138	537
139	83
140	7
141	16
142	2
154	1
155	5
156	4
157	0
176	0
177	1
183	4
184	0
211	0
