Mass Spectrum: 2-Methyl-N,N'-dipyridin-2-ylpropane-1,1-diamine
Formula: C14H18N4
CAS: 92324-78-2
Molecular weight: 242
m/z	intensity
36	2
37	33
38	91
39	266
40	259
41	237
42	26
43	46
44	18
45	3
47	17
50	135
51	280
52	183
53	41
54	24
55	105
56	12
63	5
64	25
65	29
66	118
67	482
68	33
69	23
70	35
76	16
78	999
79	592
80	62
81	94
91	9
92	23
94	783
95	210
96	8
100	87
105	132
106	43
107	38
111	5
117	3
118	14
119	71
120	27
121	18
131	45
133	923
134	80
135	6
145	1
146	1
147	74
148	118
149	568
150	62
151	3
198	4
199	193
200	21
