Mass Spectrum: 2H-Pyran-2-ol, tetrahydro-3,5-dimethyl-
Formula: C7H14O2
CAS: 92340-69-7
Molecular weight: 130
m/z	intensity
29	123
30	11
31	54
38	8
39	176
40	28
41	542
42	999
43	371
44	10
45	20
47	33
50	2
51	9
52	3
53	33
54	19
55	594
56	332
57	128
58	102
59	13
61	2
65	4
66	2
67	24
68	6
69	668
70	31
71	41
72	3
73	2
77	2
79	5
81	5
82	6
83	30
84	388
85	30
88	10
91	4
92	2
95	62
96	4
97	24
98	2
99	2
102	2
111	2
112	30
113	700
114	33
115	2
129	4
130	33
131	4
