Mass Spectrum: Hydrazine, N1-[1,3,4-(6H)thiadiazin-5(4H)-one-2-yl]-N2-[thiazol-4(5H)-one-2-yl]-
Formula: C6H7N5O2S2
CAS: 92352-58-4
Molecular weight: 245
m/z	intensity
33	16
34	9
35	3
36	7
38	6
39	13
40	28
41	101
42	999
43	335
44	79
45	585
46	839
47	135
48	48
49	4
50	4
51	4
53	11
54	20
55	29
56	45
57	46
58	59
59	195
60	75
61	11
62	12
63	0
64	10
67	3
68	27
69	35
70	29
71	11
72	91
73	50
74	165
75	30
77	11
78	2
79	2
81	2
82	8
83	20
85	21
86	32
87	179
88	37
89	22
90	2
91	8
92	2
93	1
95	1
97	3
98	7
99	16
100	35
101	66
102	53
103	4
104	10
105	5
106	1
109	2
111	2
112	1
114	20
115	39
116	121
117	102
118	17
119	7
120	2
126	2
127	27
129	53
130	89
131	46
132	28
133	9
134	4
141	7
142	71
143	32
144	13
145	21
146	19
147	4
148	11
149	10
150	3
152	1
155	31
156	43
157	105
158	15
159	16
160	16
161	5
169	1
170	5
171	41
172	21
173	63
174	42
175	6
182	1
183	166
184	14
185	13
186	21
187	3
188	4
189	2
192	1
198	29
200	2
201	3
202	1
212	1
214	83
215	9
216	7
217	1
229	1
230	525
231	59
232	55
233	2
244	1
245	540
246	46
247	51
248	4
