Mass Spectrum: 2-((3,3-Dimethyloxiran-2-yl)methyl)-3-methylfuran
Formula: C10H14O2
CAS: 92356-06-4
Molecular weight: 166
m/z	intensity
26	3
27	40
29	15
31	8
37	3
38	8
39	125
40	30
41	190
42	30
43	128
50	20
51	55
52	27
53	45
54	9
55	26
59	17
62	6
63	15
64	4
65	93
66	32
67	99
68	11
69	34
75	2
76	2
77	88
78	16
79	208
80	31
81	37
82	11
91	11
93	9
94	156
95	999
96	69
97	6
98	8
105	9
107	102
108	43
119	9
120	2
122	10
123	166
124	19
133	26
134	3
135	8
137	22
138	7
148	2
150	3
151	175
152	19
153	1
166	142
167	14
