Mass Spectrum: Cyclooctane, cyclohexyl-
Formula: C14H26
CAS: 92369-78-3
Molecular weight: 194
m/z	intensity
23	0
24	1
25	0
26	11
27	201
28	27
29	246
30	4
36	2
37	2
38	5
39	271
40	41
41	866
42	121
43	111
44	3
50	6
51	26
52	16
53	122
54	189
55	999
56	77
57	47
58	1
60	0
61	1
62	1
63	5
64	1
65	37
66	37
67	456
68	121
69	991
70	56
71	2
75	0
77	39
78	9
79	61
80	23
81	239
82	578
83	232
84	15
89	0
91	17
92	1
93	11
94	4
95	86
96	107
97	40
98	3
105	1
107	3
108	3
109	36
110	283
111	866
112	73
113	2
121	0
122	0
123	4
124	3
135	0
137	1
138	1
151	0
152	0
166	2
194	10
195	0
