Mass Spectrum: 2-Butyne, 1,4-bis[(tetrahydropyran-2-yl)oxy]-
Formula: C14H22O4
CAS: 92372-45-7
Molecular weight: 254
m/z	intensity
25	1
26	21
27	111
28	31
29	59
30	5
31	41
37	3
38	8
39	112
41	265
42	28
43	139
44	10
45	6
47	19
49	1
50	15
51	50
52	102
53	30
54	17
55	101
56	54
57	115
58	5
59	6
65	5
66	3
67	154
68	16
69	52
70	9
71	17
72	1
74	0
77	2
78	1
79	15
80	2
81	9
82	1
83	38
84	42
85	999
86	59
87	8
91	10
92	1
93	10
94	6
95	9
96	10
97	252
98	16
99	15
100	4
101	159
102	10
103	7
105	3
106	1
107	11
108	4
109	23
110	3
111	44
112	5
113	1
115	0
117	3
121	1
122	1
123	2
124	2
125	3
126	2
127	3
128	1
135	3
139	7
140	2
141	1
142	12
143	1
151	1
152	8
153	9
154	1
169	12
170	9
171	4
185	2
