Mass Spectrum: Butanoic acid, 4-amino-3-hydroxy-, (.+/-.)-
Formula: C4H9NO3
CAS: 924-49-2
Molecular weight: 119
m/z	intensity
13	1
14	8
15	21
16	1
17	10
18	39
19	5
25	1
26	7
27	24
28	70
29	17
30	999
31	42
32	4
36	1
37	2
38	3
39	9
40	5
41	16
42	36
43	55
44	25
45	14
46	1
47	3
51	2
52	3
53	2
54	11
55	15
56	32
57	7
58	5
59	9
60	40
61	1
66	1
67	3
68	1
69	2
70	1
71	21
72	7
73	9
82	2
83	20
84	9
85	1
89	5
100	2
101	77
102	4
103	1
