Mass Spectrum: Butane(dithioic) acid, ethyl ester
Formula: C6H12S2
CAS: 924-75-4
Molecular weight: 148
m/z	intensity
26	25
27	228
29	183
30	5
32	26
33	2
34	3
35	23
37	3
38	6
39	62
41	81
42	13
43	50
44	2
45	443
46	30
47	73
48	1
51	3
53	76
54	6
55	20
57	22
58	137
59	260
60	25
61	55
62	4
63	2
64	7
65	1
69	14
70	3
71	135
72	8
73	20
75	25
76	42
77	166
78	17
79	16
81	3
82	1
83	1
84	3
85	75
86	104
87	999
88	67
89	54
90	4
91	7
92	96
93	4
94	8
103	1
105	51
106	2
107	3
115	3
118	10
119	120
120	144
121	19
122	12
133	3
148	514
149	42
150	50
151	3
