Mass Spectrum: 1,2,2-Trimethylpropyl dimethylphosphinate
Formula: C8H19O2P
CAS: 92411-69-3
Molecular weight: 178
m/z	intensity
39	69
41	257
42	90
55	61
57	49
69	171
77	291
78	579
79	49
84	60
85	70
95	999
120	319
122	400
163	9
