Mass Spectrum: Bis[(4-methylsulfonyl)phenyl] disulfide
Formula: C14H14O4S4
CAS: 92424-06-1
Molecular weight: 374
m/z	intensity
45	220
50	90
51	80
52	20
53	70
57	20
58	160
62	40
63	800
64	110
65	150
69	420
70	110
71	50
76	50
77	40
78	30
79	40
81	110
82	220
83	20
84	30
95	50
96	160
97	180
98	50
99	20
107	30
108	320
109	230
110	40
111	20
121	20
122	30
123	40
124	130
125	999
126	90
127	70
128	20
139	20
140	110
141	20
155	70
156	140
157	20
171	170
172	20
173	80
188	60
203	20
204	20
216	70
232	20
295	50
311	20
374	290
375	50
376	50
