Mass Spectrum: 1-Benzyl-1,4-dihydro-4-oxoquinazoline
Formula: C15H12N2O
CAS: 92437-29-1
Molecular weight: 236
m/z	intensity
26	7
27	19
28	50
29	1
39	42
40	3
41	10
43	2
44	4
45	3
49	3
50	40
51	45
52	12
53	3
55	2
56	1
57	2
59	4
61	4
62	10
63	38
64	33
65	131
66	8
69	1
71	2
73	4
74	11
75	27
76	42
77	68
78	18
79	2
81	1
82	2
83	3
85	1
86	2
87	2
88	6
89	33
90	46
91	999
92	105
93	5
95	1
96	2
97	2
98	1
99	4
100	8
101	59
102	14
103	24
104	32
105	21
106	7
107	3
109	1
111	1
115	1
116	3
117	9
118	28
119	15
120	1
125	1
126	3
127	4
128	263
129	28
130	169
131	44
132	26
133	2
139	1
140	1
144	5
145	28
146	83
147	8
150	1
151	7
152	22
153	8
154	2
158	2
159	4
164	1
165	10
166	5
167	4
168	1
177	2
178	7
179	9
180	71
181	15
182	2
190	1
191	1
192	8
193	5
194	21
195	3
205	1
206	2
207	7
208	9
209	2
217	1
218	2
219	25
220	4
221	4
235	135
236	550
237	98
238	9
