Mass Spectrum: Acetic acid, 2-isopropylaminothiocarbonylthio-, ethyl ester
Formula: C8H15NO2S2
CAS: 92442-05-2
Molecular weight: 221
m/z	intensity
34	4
35	0
36	0
37	16
38	42
39	299
40	65
41	484
42	352
43	357
44	46
45	229
46	378
47	139
48	19
49	5
50	0
51	4
52	11
53	2
54	18
55	14
56	25
57	31
58	85
59	67
60	220
61	9
62	10
64	47
65	3
66	6
68	99
69	8
70	24
71	11
72	70
73	20
74	92
75	76
76	72
77	29
78	13
79	3
80	1
81	0
82	2
83	3
84	15
86	166
87	10
88	14
89	9
90	15
91	26
92	21
93	3
94	1
95	0
96	0
100	999
101	121
102	59
103	6
104	5
105	9
106	37
107	2
108	3
114	2
115	0
116	0
117	4
118	16
119	1
120	1
128	0
130	0
132	14
133	117
134	89
135	14
136	8
137	0
142	27
143	2
144	1
147	15
148	1
149	1
160	2
171	0
174	111
175	579
176	64
177	57
178	4
179	1
