Mass Spectrum: Cyclohexanebutanal, 2-methyl-3-oxo-, cis-
Formula: C11H18O2
CAS: 92485-93-3
Molecular weight: 182
m/z	intensity
26	11
27	163
28	30
29	164
30	5
31	15
38	6
39	176
40	37
41	437
42	93
43	144
44	17
45	16
46	2
50	7
51	20
52	12
53	99
54	77
55	620
56	99
57	107
58	13
59	3
60	2
61	3
62	2
63	5
65	27
66	20
67	330
68	130
69	170
70	120
71	36
72	21
73	7
77	35
78	16
79	173
80	40
81	220
82	220
83	229
84	72
85	21
86	5
91	39
92	19
93	114
94	57
95	108
96	34
97	230
98	43
99	6
100	2
104	2
105	28
106	6
107	53
108	35
109	60
110	67
111	999
112	164
113	14
114	2
115	3
117	6
118	8
119	5
120	20
121	27
122	15
123	29
124	50
125	40
126	17
127	3
129	2
133	3
135	23
136	12
137	18
138	20
139	34
140	5
141	7
142	2
149	14
150	2
153	30
154	12
155	4
163	2
164	20
165	6
167	11
181	2
182	83
183	13
184	2
