Mass Spectrum: Cyclopentanepropanoic acid, 2-methyl-3-oxo-, methyl ester, trans-(.+-.)-
Formula: C10H16O3
CAS: 92486-10-7
Molecular weight: 184
m/z	intensity
26	39
27	151
28	168
29	112
30	10
31	27
36	7
37	7
38	15
39	171
40	48
41	339
42	66
43	236
45	23
50	16
51	31
52	18
53	95
54	61
55	377
56	73
57	54
58	29
59	84
60	7
63	12
65	33
66	18
67	146
68	182
69	211
70	55
71	41
72	8
73	13
74	329
75	41
76	8
77	38
78	17
79	63
80	18
81	96
82	72
83	75
84	15
85	49
86	7
87	70
88	21
91	62
92	66
93	61
94	13
95	68
97	999
98	80
99	17
100	9
103	6
104	7
105	28
106	39
107	55
108	15
109	58
110	414
111	130
112	14
123	30
124	47
125	21
127	26
128	32
129	17
130	7
131	11
133	9
134	18
135	20
137	7
152	10
153	162
154	22
155	2
166	18
167	8
168	1
169	15
170	1
183	1
184	27
185	7
