Mass Spectrum: Bicyclo[2.2.1]hept-5-ene-2-carboxylic acid, 3-amino-, exo,exo-
Formula: C8H11NO2
CAS: 92511-32-5
Molecular weight: 153
m/z	intensity
15	22
17	28
26	8
27	49
29	20
30	77
38	14
39	101
41	64
42	55
43	46
44	22
45	11
46	8
50	12
51	29
52	17
53	32
54	21
55	11
56	17
62	6
63	14
64	6
65	98
66	999
67	87
68	15
69	386
70	390
71	17
77	37
78	14
79	34
80	20
81	12
82	10
87	538
88	711
89	36
90	6
91	49
92	17
93	14
94	17
106	22
107	9
108	41
109	5
136	3
153	2
154	6
155	2
