Mass Spectrum: 2-Methyl-6-(3-hydroxypentyl)pyridine
Formula: C11H17NO
CAS: 92512-80-6
Molecular weight: 179
m/z	intensity
41	73
42	37
43	30
44	70
45	8
46	1
47	0
48	0
49	0
50	13
51	40
52	29
53	36
54	16
55	11
56	2
57	18
58	3
59	33
60	3
61	1
62	5
63	27
64	23
65	123
66	80
67	19
68	2
69	3
70	1
71	3
72	1
73	2
74	4
75	4
76	4
77	101
78	31
79	57
80	15
81	3
82	1
83	1
84	1
85	1
86	0
87	0
88	0
89	5
90	3
91	22
92	75
93	109
94	33
95	3
96	0
97	0
98	0
99	0
100	0
101	0
102	2
103	3
104	11
105	5
106	104
107	999
108	116
109	6
110	0
111	0
112	0
113	0
114	0
115	1
116	2
117	21
118	23
119	13
120	548
121	183
122	17
123	1
124	0
125	0
126	0
127	0
128	1
129	0
130	11
131	26
132	75
133	22
134	7
135	1
136	3
137	0
138	0
139	0
140	0
141	1
142	1
143	1
144	7
145	5
146	31
147	5
148	11
149	2
150	435
151	46
152	3
153	0
154	0
155	0
156	0
157	0
158	1
159	0
160	9
161	4
162	81
163	10
164	6
165	1
166	0
167	0
168	0
169	0
171	0
175	0
176	0
177	0
178	21
179	5
180	1
181	0
