Mass Spectrum: 1-Acetyl-2-isopropyl-3-methyl-5-hydroxypyrazolidine
Formula: C9H18N2O2
CAS: 92521-99-8
Molecular weight: 186
m/z	intensity
56	135
59	107
69	71
83	127
84	87
85	92
87	41
99	99
101	999
111	120
126	13
129	111
143	729
144	101
186	89
