Mass Spectrum: Salvinorin B
Formula: C21H26O7
CAS: 92545-30-7
Molecular weight: 390
m/z	intensity
40	45
41	189
42	16
43	101
45	11
50	6
51	19
52	16
53	98
54	38
55	338
56	21
57	45
58	11
59	64
60	8
61	34
63	13
65	133
66	78
67	160
68	83
69	88
70	7
71	20
74	6
75	14
77	228
78	46
79	256
80	47
81	289
82	81
83	80
84	74
85	38
86	90
87	445
88	24
89	15
91	287
92	70
93	355
94	999
95	364
96	44
97	85
98	26
99	16
100	29
101	21
103	44
104	27
105	212
106	48
107	393
108	298
109	117
110	36
111	32
112	8
113	13
114	28
115	99
116	305
117	142
118	100
119	138
120	83
121	344
122	85
123	83
124	24
125	36
126	12
127	18
128	40
129	61
130	27
131	85
132	47
133	101
134	86
135	106
136	33
137	50
138	15
139	21
140	20
141	20
142	19
143	42
144	21
145	106
146	65
147	104
148	50
149	79
150	26
151	55
152	28
153	313
154	40
155	29
156	13
157	24
158	26
159	54
160	27
161	77
162	19
163	42
164	28
165	29
166	56
167	37
168	13
169	14
170	11
171	33
172	19
173	38
174	27
175	62
176	21
177	37
178	30
179	157
180	48
181	29
182	9
183	12
184	9
185	27
186	23
187	29
188	17
189	18
190	15
191	49
192	64
193	49
194	15
195	18
196	9
198	10
199	34
200	26
201	42
202	13
203	30
204	18
205	28
206	54
210	13
211	60
212	13
213	33
214	12
215	18
216	43
217	21
218	8
219	21
220	44
221	11
222	11
223	34
224	14
225	6
227	16
228	9
229	27
230	10
231	14
233	39
234	17
235	27
236	15
239	16
240	8
241	15
242	8
243	8
245	13
246	6
247	30
248	18
249	22
250	13
251	16
252	29
256	7
257	17
258	18
260	7
261	119
262	33
267	6
268	17
269	15
270	7
271	7
273	330
274	55
275	26
276	7
279	29
281	7
283	8
286	8
287	9
293	79
294	22
295	10
299	9
301	7
303	15
305	33
314	10
315	7
318	83
319	15
328	9
329	6
330	11
331	17
341	8
343	10
346	92
347	37
358	9
359	13
362	28
363	11
390	70
391	13
