Mass Spectrum: Ethane, 1-[(2-chloroethyl)thio]-2-(ethylthio)-
Formula: C6H13ClS2
CAS: 92569-22-7
Molecular weight: 184
m/z	intensity
33	109
35	489
41	193
45	757
46	354
47	627
49	150
50	79
57	119
59	821
60	510
61	639
63	522
65	169
73	190
75	999
77	201
78	50
88	110
89	764
90	122
91	99
92	143
93	202
109	221
121	108
122	113
123	248
124	68
125	72
127	92
148	170
149	60
150	48
152	28
184	283
185	48
186	129
