Mass Spectrum: 2-(2-t-Butyl-4-methyl-5-oxo[1,3]dioxolan-4-yl)-N,N-dimethylacetamide
Formula: C12H21NO4
CAS: 92572-55-9
Molecular weight: 243
m/z	intensity
26	3
27	66
28	30
29	122
30	27
31	7
38	4
39	90
40	25
41	216
42	128
43	446
44	388
45	232
46	688
53	10
54	4
55	50
56	29
57	195
58	74
68	8
69	46
70	61
71	38
72	951
73	33
74	8
85	47
86	57
87	159
88	20
97	3
98	31
99	3
100	5
101	2
111	4
112	21
113	25
114	22
115	20
116	2
121	4
126	21
128	8
129	21
130	999
131	73
132	6
140	75
141	11
155	3
157	7
158	16
159	5
170	2
173	2
180	2
184	3
186	553
187	48
188	6
198	8
215	6
225	3
228	2
243	7
244	12
245	2
