Mass Spectrum: 3,5-Hexadien-2-ol, 2-methyl-
Formula: C7H12O
CAS: 926-38-5
Molecular weight: 112
m/z	intensity
36	4
37	26
38	46
39	350
40	44
41	630
42	51
43	980
44	61
45	55
46	7
47	7
48	5
49	22
50	100
51	175
52	90
53	275
54	130
55	190
56	24
57	46
58	43
59	190
60	6
61	12
62	16
63	33
64	7
65	63
66	40
67	170
68	120
69	530
70	56
71	25
72	6
73	6
74	16
75	9
76	6
77	315
78	80
79	525
80	54
81	63
82	32
83	20
84	4
85	23
91	100
92	13
93	85
94	245
95	130
96	17
97	999
98	65
99	5
111	15
112	250
113	24
