Mass Spectrum: 2-Aminoethyl hydrogen sulfate
Formula: C2H7NO4S
CAS: 926-39-6
Molecular weight: 141
m/z	intensity
41	12
42	41
43	22
44	13
45	3
48	432
49	5
50	19
51	3
52	5
53	9
56	3
57	3
58	5
59	13
60	5
64	999
65	99
66	56
67	9
68	7
69	26
76	3
79	3
80	52
81	6
82	1
85	3
93	15
94	8
96	1
111	4
