Mass Spectrum: 1-Propanol, 2,2-dimethyl-, nitrate
Formula: C5H11NO3
CAS: 926-42-1
Molecular weight: 133
m/z	intensity
15	25
26	13
27	157
28	77
29	421
30	106
31	28
39	197
40	30
41	563
42	67
43	551
44	34
45	11
46	424
53	17
55	79
56	37
57	999
58	52
71	164
72	76
76	16
118	4
132	1
