Mass Spectrum: 1-Chloro-2-methylpropyl chloroformate
Formula: C5H8Cl2O2
CAS: 92600-11-8
Molecular weight: 170
m/z	intensity
14	1
15	9
16	1
25	1
26	15
27	127
28	26
29	87
30	2
31	2
35	14
36	6
37	14
38	23
39	165
40	20
41	285
42	121
43	999
44	70
45	6
47	3
48	10
49	19
50	12
51	16
52	3
53	35
54	32
55	733
56	36
57	11
60	1
61	4
62	8
63	440
64	10
65	164
66	3
67	7
69	2
70	2
71	15
72	19
73	6
74	1
75	38
76	12
77	14
78	5
79	1
81	1
83	1
85	1
89	6
90	90
91	250
92	42
93	79
94	4
99	19
100	2
101	12
102	1
103	2
107	6
109	2
111	1
119	2
121	1
127	3
128	13
129	12
130	9
131	7
132	2
133	1
134	4
135	21
136	2
137	7
