Mass Spectrum: Acetic acid, 1,7,7-trimethyl-bicyclo[2.2.1]hept-2-yl ester
Formula: C12H20O2
CAS: 92618-89-8
Molecular weight: 196
m/z	intensity
26	6
27	123
28	33
29	114
30	3
31	7
36	1
37	3
38	7
39	154
40	30
41	322
42	39
43	703
44	24
45	10
50	8
51	26
52	13
53	92
54	15
55	175
56	15
57	32
58	3
59	6
60	2
61	3
62	5
63	10
64	5
65	31
66	14
67	107
68	42
69	122
70	21
71	49
72	38
73	4
74	2
75	3
76	2
77	62
78	17
79	94
80	177
81	113
82	109
83	88
84	64
85	18
86	8
87	3
89	4
90	3
91	61
92	141
93	422
94	91
95	999
96	103
97	28
98	12
99	15
100	3
101	2
102	1
103	4
104	2
105	27
106	8
107	83
108	220
109	151
110	157
111	67
112	10
113	26
114	4
115	2
117	1
118	1
119	9
120	6
121	399
122	48
123	20
124	2
125	10
126	4
127	3
134	4
135	18
136	535
137	78
138	6
139	18
140	2
141	1
142	1
151	1
152	3
153	12
154	105
155	13
156	1
181	1
196	64
197	8
198	1
