Mass Spectrum: Pentalene, octahydro-1,4-diiodo-
Formula: C8H12I2
CAS: 92617-51-1
Molecular weight: 362
m/z	intensity
26	4
27	83
29	63
35	2
36	2
37	2
38	11
39	108
40	23
41	141
42	10
43	72
44	12
45	7
50	16
51	46
52	44
53	74
54	42
55	43
56	4
57	11
60	2
61	22
62	7
63	10
64	3
65	52
66	71
67	310
68	28
69	15
70	4
71	7
73	3
74	3
75	6
76	2
77	79
78	46
79	999
80	228
81	57
82	5
83	6
84	6
85	6
86	2
87	2
91	140
92	25
93	68
94	9
95	14
96	4
97	7
98	2
99	3
102	2
103	5
104	2
105	54
106	24
107	973
108	288
109	33
110	2
111	3
112	2
115	2
119	2
120	2
121	6
122	6
123	12
124	2
125	5
127	13
128	22
134	4
136	4
137	3
138	3
139	8
140	2
141	9
142	2
143	2
153	3
154	2
155	15
167	2
168	16
169	2
170	4
182	14
184	20
185	3
186	3
190	2
194	11
198	5
209	5
213	2
233	5
234	17
235	918
236	87
237	4
362	42
363	5
