Mass Spectrum: Milnacipran
Formula: C15H22N2O
CAS: 92623-85-3
Molecular weight: 246
m/z	intensity
15	15
16	4
17	5
18	39
20	1
25	1
26	13
27	116
28	198
29	313
30	485
31	12
35	2
36	7
37	3
38	10
39	81
40	14
41	88
42	208
43	286
44	337
45	14
46	9
47	1
49	1
50	29
51	110
52	29
53	24
54	29
55	43
56	249
57	29
58	266
59	12
60	1
61	2
62	22
63	79
64	20
65	54
66	15
67	15
68	30
69	23
70	56
71	20
72	635
73	53
74	99
75	30
76	39
77	339
78	67
79	33
80	11
81	15
82	15
83	6
84	11
85	8
86	42
87	18
88	19
89	138
90	72
91	280
92	42
93	7
94	6
95	4
96	18
97	7
98	22
99	39
100	248
101	36
102	116
103	999
104	239
105	294
106	50
107	7
108	2
109	19
110	20
111	5
112	129
113	83
114	28
115	727
116	223
117	279
118	166
119	49
120	34
121	7
122	2
123	9
124	31
125	12
126	29
127	152
128	296
129	413
130	203
131	152
132	59
133	50
134	13
135	4
137	3
138	16
139	3
140	18
141	17
142	28
143	88
144	357
145	123
146	53
147	10
148	50
149	9
150	11
151	4
152	7
153	8
154	31
155	23
156	84
157	63
158	136
159	41
160	24
161	5
162	35
163	7
166	2
167	3
168	8
169	10
170	19
171	17
172	65
173	65
174	55
175	8
176	379
177	48
178	5
180	1
181	8
182	7
183	16
184	14
185	30
186	36
187	20
188	90
189	19
190	14
191	79
192	9
195	2
197	13
198	4
199	120
200	47
201	9
202	95
203	23
204	867
205	132
206	10
209	1
211	5
212	3
213	8
214	9
215	3
216	68
217	21
218	3
225	6
226	3
227	114
228	71
229	28
230	8
231	12
232	1
244	1
245	18
246	217
247	41
248	4
