Mass Spectrum: Ethyl 7-oxa-7-(2-benzyl-2-methyl-6,10-dithiaspiro[4.5]decan-1-yl)heptanoate
Formula: C24H36O3S2
CAS: 92640-63-6
Molecular weight: 436
m/z	intensity
41	500
55	290
69	999
91	170
96	290
97	900
115	510
132	120
143	510
145	500
185	290
276	50
285	30
436	70
