Mass Spectrum: N,N'-Bis[4-(4-aminophenoxy)phenyl]pyromellitic diimide
Formula: C34H22N4O6
CAS: 92660-68-9
Molecular weight: 582
m/z	intensity
35	11
36	44
39	741
40	876
41	235
42	159
43	228
44	376
45	131
46	9
50	160
51	174
52	344
53	332
54	133
55	57
56	33
57	39
58	44
60	13
62	132
63	176
65	739
66	99
67	16
68	8
69	17
70	24
71	18
73	35
74	26
75	37
77	189
78	63
80	732
81	35
83	28
84	23
85	14
86	45
87	5
89	15
91	132
92	131
93	136
94	9
95	3
98	5
100	62
102	12
103	9
105	152
106	37
108	999
109	84
114	4
115	11
116	4
117	29
118	11
119	6
120	11
121	2
123	9
124	20
125	7
127	28
128	12
129	9
130	20
143	7
144	21
145	11
152	3
154	24
156	34
164	9
171	112
172	16
180	3
182	9
183	12
198	5
200	321
201	30
242	6
328	8
582	11
583	2
