Mass Spectrum: 1-Benzoyl-2-(4-chlorobenzoyl)-3-(2-chlorophenyl)-cyclopropane
Formula: C23H16Cl2O2
CAS: 92694-24-1
Molecular weight: 394
m/z	intensity
76	70
77	468
78	49
89	211
91	49
105	999
106	80
111	247
113	89
115	99
125	70
139	696
141	218
150	80
202	68
220	59
227	59
254	199
255	648
256	178
257	269
261	59
289	449
290	60
291	280
292	50
293	59
359	50
