Mass Spectrum: Butyl (2-(benzoyloxy)ethyl)carbamate
Formula: C14H19NO4
CAS: 92697-36-4
Molecular weight: 265
m/z	intensity
15	8
26	4
27	39
28	32
29	103
30	340
31	46
32	1
33	4
37	1
38	3
39	22
40	5
41	138
42	48
43	262
44	56
45	7
49	1
50	28
51	106
52	6
53	4
54	1
55	26
56	160
57	312
58	13
59	1
60	4
62	1
63	1
65	2
69	21
70	68
71	9
72	1
73	5
74	26
75	10
76	21
77	399
78	31
79	9
82	2
84	21
85	2
86	3
87	143
88	45
89	2
90	1
91	9
92	8
93	1
94	1
98	1
100	3
101	4
103	2
104	11
105	999
106	82
107	6
114	2
115	1
117	1
118	2
119	4
120	1
121	2
122	120
123	22
124	1
128	1
130	132
131	9
132	1
135	10
136	3
143	690
144	55
145	5
146	1
147	12
148	1
149	4
150	2
160	2
166	7
191	6
192	7
266	1
