Mass Spectrum: 1-Pentanol, 4-amino-
Formula: C5H13NO
CAS: 927-55-9
Molecular weight: 103
m/z	intensity
41	47
42	301
43	181
44	999
45	56
47	56
48	29
50	9
51	65
53	10
54	9
55	25
56	43
57	39
58	7
67	6
68	6
69	23
70	28
71	27
82	5
85	39
86	14
88	26
103	6
