Mass Spectrum: Dichloroacetic acid, 2-ethoxyethyl ester
Formula: C6H10Cl2O3
CAS: 92704-99-9
Molecular weight: 200
m/z	intensity
41	86
42	46
43	263
44	227
45	981
46	25
47	46
48	144
49	38
50	48
51	9
52	1
53	0
54	1
55	6
56	1
57	14
58	11
59	999
60	37
61	9
62	4
63	14
64	2
65	14
66	1
67	4
68	1
69	3
70	2
72	466
73	140
74	8
75	3
76	213
77	13
78	69
79	12
80	1
81	5
82	18
83	467
84	22
85	299
86	11
87	49
88	2
89	8
90	0
91	6
92	0
93	9
94	3
95	5
96	2
97	2
98	1
99	1
101	12
102	1
103	1
104	0
105	1
106	5
107	4
108	3
109	3
110	18
111	46
112	15
113	33
114	5
115	9
116	1
117	3
118	0
119	2
120	92
121	10
122	30
123	5
124	0
125	0
126	0
127	7
128	12
129	12
130	8
131	6
132	1
133	1
134	0
135	0
136	1
137	2
138	0
139	1
140	0
141	3
142	19
143	3
144	11
145	1
146	2
147	1
149	1
151	1
152	0
153	1
154	0
155	42
156	2
157	117
158	1
159	40
160	2
161	1
163	0
164	0
165	3
166	0
167	2
168	1
171	9
172	0
173	19
174	0
175	8
176	0
184	0
185	1
186	0
187	3
188	0
189	1
190	0
197	0
199	0
200	1
201	0
202	3
203	0
204	1
205	0
