Mass Spectrum: N'-(4-Nitrobenzylidene)octanohydrazide
Formula: C15H21N3O3
CAS: 92703-75-8
Molecular weight: 291
m/z	intensity
34	3
36	0
37	5
38	12
39	153
40	56
41	542
42	106
43	489
44	52
45	6
46	5
48	2
49	1
50	27
51	22
52	15
53	23
54	17
55	227
56	29
57	999
59	811
60	35
61	3
62	15
63	67
64	30
65	31
66	4
67	43
68	8
69	23
70	11
71	16
72	135
73	21
75	19
76	53
77	18
78	9
79	9
80	7
81	11
82	7
83	24
84	8
85	13
86	52
87	8
88	4
89	53
90	25
91	36
92	21
93	9
95	7
96	2
97	5
98	8
100	44
101	8
102	8
103	25
104	9
105	7
106	3
107	6
109	38
110	4
114	28
115	3
117	16
118	63
119	17
120	13
121	3
122	4
123	8
125	3
127	284
128	27
129	3
130	2
131	2
132	4
133	3
134	3
135	30
136	3
142	2
143	36
144	4
146	2
147	2
148	7
149	23
150	2
151	5
152	1
154	0
155	0
156	0
160	1
161	0
162	0
163	1
164	19
165	251
166	41
167	4
169	0
170	0
171	1
174	0
176	11
177	3
178	0
179	0
181	0
188	0
189	0
190	0
191	0
192	2
197	0
199	0
202	0
203	0
204	0
205	1
206	0
207	55
208	6
209	0
214	0
216	0
218	1
219	1
220	4
221	0
231	0
232	0
233	0
234	0
235	0
240	0
241	0
242	0
245	0
247	0
248	1
249	0
258	0
260	0
261	1
262	0
275	0
276	0
287	0
290	1
291	13
292	2
