Mass Spectrum: Ditelluride, bis(2,4,6-trimethylphenyl)
Formula: C18H22Te2
CAS: 92720-46-2
Molecular weight: 498
m/z	intensity
26	1
27	14
28	0
29	2
38	0
39	32
40	8
41	58
42	2
43	0
45	0
50	4
51	23
52	7
53	16
54	0
55	1
57	0
58	0
61	0
62	2
63	11
64	2
65	31
66	3
67	3
69	0
73	0
74	1
75	4
76	3
77	57
78	20
79	21
80	2
81	0
86	0
87	1
88	0
89	6
90	2
91	124
92	13
93	13
94	1
98	0
101	1
102	8
103	42
104	25
105	16
106	1
107	0
114	0
115	45
116	9
117	59
118	50
119	999
120	91
121	5
124	0
125	0
126	1
128	1
130	2
131	0
132	0
133	0
141	0
142	0
145	0
152	0
155	0
163	0
166	0
167	0
168	0
175	0
189	0
191	0
192	0
193	1
197	0
199	0
203	0
205	0
206	0
207	1
208	0
209	0
220	0
221	3
222	1
223	1
226	0
227	0
228	0
229	0
230	0
231	1
232	0
233	0
235	1
236	2
237	3
238	0
240	4
241	5
242	10
243	19
244	38
245	27
246	50
247	45
248	58
249	48
250	5
251	0
254	0
256	0
258	0
260	0
277	0
360	2
361	1
362	3
363	7
364	17
365	3
366	27
367	5
368	29
369	5
370	3
371	2
372	4
373	3
374	7
375	2
376	6
377	1
378	4
379	0
420	0
482	0
484	0
485	1
486	6
487	5
488	16
489	15
490	36
491	27
492	62
493	31
494	101
495	17
496	85
497	17
498	46
499	9
500	0
