Mass Spectrum: 2,3-Dehydro-1,8-cineole
Formula: C10H16O
CAS: 92760-25-3
Molecular weight: 152
m/z	intensity
39	30
41	12
43	70
45	30
53	25
58	26
65	24
67	62
69	21
77	84
78	30
79	367
80	52
81	43
82	29
83	23
84	35
85	22
91	126
92	48
93	95
94	261
95	57
105	42
106	26
108	33
109	999
110	86
111	48
117	21
119	78
124	225
125	32
134	55
137	33
152	74
