Mass Spectrum: Propanedioic acid, oxo-, bis(2-methylpropyl) ester
Formula: C11H18O5
CAS: 92778-43-3
Molecular weight: 230
m/z	intensity
25	1
26	10
27	120
28	17
29	611
30	16
31	17
33	3
37	2
38	3
39	83
40	5
41	652
42	39
43	87
44	121
45	0
46	0
47	1
50	2
51	1
52	0
53	6
54	0
55	40
56	93
57	999
58	41
59	7
60	0
63	0
65	1
67	0
69	1
71	26
72	4
73	9
74	4
76	2
77	3
78	1
79	1
82	0
83	0
84	0
85	11
87	3
88	0
89	0
91	5
93	0
95	0
97	1
98	0
99	0
100	0
101	0
102	5
103	5
104	1
105	1
108	0
109	0
110	0
115	2
117	0
118	1
119	0
120	0
121	0
123	0
124	0
125	0
126	1
128	1
129	6
130	3
131	0
132	0
134	0
140	0
146	0
148	0
149	1
152	0
153	0
156	0
157	0
159	1
162	14
163	2
164	0
165	5
166	0
167	1
170	1
174	0
175	0
178	0
181	0
186	0
189	0
191	2
192	0
