Mass Spectrum: N-Pyrrylcarbinol
Formula: C5H7NO
CAS: 92776-61-9
Molecular weight: 97
m/z	intensity
26	53
27	141
28	547
29	172
30	29
31	349
32	21
37	111
38	225
39	690
40	435
41	788
42	43
50	29
51	55
52	49
53	162
54	11
66	85
67	999
68	85
69	10
78	24
79	71
80	535
81	43
82	7
97	787
98	55
99	1
