Mass Spectrum: (+-)-cis-3,4-Dimethyl-2-phenyltetrahydro-1,4-thiazine
Formula: C12H17NS
CAS: 92772-63-9
Molecular weight: 207
m/z	intensity
15	9
26	1
27	9
28	16
29	6
30	7
32	1
34	1
39	16
40	2
41	10
42	232
43	10
44	15
45	17
46	1
47	2
50	4
51	16
52	4
53	2
54	6
55	6
56	117
57	732
58	57
59	7
60	3
61	4
62	3
63	10
64	3
65	13
66	1
68	2
69	2
70	250
71	16
72	1
73	1
74	2
75	2
76	3
77	33
78	19
79	6
81	1
82	3
83	1
84	22
85	999
86	66
87	3
88	4
89	13
90	4
91	52
92	4
96	1
101	1
102	10
103	21
104	7
105	9
106	1
114	2
115	45
116	144
117	73
118	44
119	4
121	63
122	43
123	7
124	2
128	3
129	2
130	5
131	5
132	2
134	8
135	7
136	1
143	1
144	9
145	3
146	6
147	4
148	1
149	6
150	3
157	1
158	4
160	1
163	1
164	1
172	4
190	3
191	3
192	9
193	1
205	12
206	4
207	387
208	55
209	20
210	2
