Mass Spectrum: 1-Hexene, 6-chloro-
Formula: C6H11Cl
CAS: 928-89-2
Molecular weight: 118
m/z	intensity
14	1
15	4
25	1
26	23
27	156
28	36
29	83
30	2
35	2
36	4
37	12
38	32
39	394
40	62
41	805
42	324
43	51
44	2
47	2
48	3
49	75
50	38
51	81
52	25
53	139
54	325
55	999
56	425
57	18
60	1
61	11
62	41
63	27
64	13
65	34
66	12
67	558
68	39
69	392
70	22
71	1
73	4
74	4
75	37
76	56
77	41
78	20
79	25
80	3
81	40
82	234
83	98
84	6
88	2
89	13
90	118
91	9
92	38
93	2
103	3
105	1
118	59
119	4
120	19
121	1
