Mass Spectrum: 1-Heptyn-6-one
Formula: C7H10O
CAS: 928-39-2
Molecular weight: 110
m/z	intensity
25	0
26	6
27	64
28	20
29	8
30	1
31	4
33	0
34	0
36	0
37	6
38	15
39	98
40	17
41	129
42	19
43	999
44	25
45	5
46	0
47	0
48	0
49	1
50	8
51	14
52	5
53	16
54	2
55	62
56	3
57	6
58	158
59	6
60	0
61	2
62	3
63	6
64	1
65	29
66	17
67	85
68	31
69	4
70	2
71	12
72	0
74	1
75	0
76	0
77	3
78	1
79	2
80	0
81	3
82	4
83	1
84	1
85	0
87	0
88	0
89	0
90	0
91	3
92	1
93	1
94	1
95	80
96	4
105	2
106	1
107	1
108	0
109	21
110	5
111	3
