Mass Spectrum: 1-Methoxy-2-methyl-3-butene
Formula: C6H12O
CAS: 92808-02-1
Molecular weight: 100
m/z	intensity
39	100
40	10
41	100
42	20
43	20
45	999
46	30
53	50
54	40
55	110
58	20
67	40
68	440
69	50
71	20
72	30
85	10
99	5
100	5
