Mass Spectrum: Phosphinic acid, dicyclohexyl-, anhydride with diethylborinic acid
Formula: C16H32BO2P
CAS: 92810-17-8
Molecular weight: 298
m/z	intensity
25	24
26	25
27	119
28	12
29	197
30	4
31	4
33	0
35	1
36	4
37	4
38	5
39	108
40	42
41	703
42	41
43	61
44	2
45	8
46	0
47	96
48	7
49	15
50	6
51	21
52	9
53	88
54	75
55	999
56	80
57	92
58	5
59	9
60	6
61	24
62	3
63	45
64	3
65	21
66	12
67	139
68	22
69	75
70	5
71	6
72	1
73	9
74	5
75	56
76	27
77	102
78	23
79	104
80	23
81	308
82	49
83	496
84	40
85	37
86	4
87	9
88	6
89	147
90	8
91	8
92	4
93	11
94	6
95	4
96	1
97	4
98	1
99	3
100	1
101	10
102	13
103	38
104	26
105	51
106	5
107	8
108	2
109	4
110	1
111	8
112	1
113	204
114	18
115	20
116	5
117	5
118	10
119	28
120	3
121	3
123	1
124	1
125	33
126	2
127	2
128	1
129	13
130	9
131	86
132	37
133	139
134	96
135	93
136	4
137	1
139	0
140	0
141	1
142	1
143	3
144	2
145	7
146	4
147	8
148	74
149	27
150	2
151	0
153	1
154	0
155	1
156	3
157	13
158	7
159	29
160	10
161	28
162	27
163	5
164	1
165	1
166	0
167	1
169	4
170	2
171	4
172	4
173	9
174	6
175	22
176	2
177	1
178	0
179	0
180	4
181	17
182	1
183	2
184	2
185	7
186	89
187	334
188	31
189	7
190	1
191	0
193	1
194	0
196	0
197	2
198	1
199	3
200	10
201	36
202	3
203	1
204	1
205	1
206	0
207	1
208	1
209	1
210	6
211	5
212	4
213	258
214	51
215	245
216	959
217	129
218	12
219	1
221	0
223	0
226	0
227	3
228	1
229	2
230	12
231	4
232	0
238	0
239	2
240	3
241	12
242	11
243	38
244	7
245	1
252	0
253	1
254	1
255	4
256	2
257	5
258	1
263	0
266	2
267	6
268	216
269	881
270	131
271	13
272	1
277	1
278	0
281	1
282	3
283	13
284	2
286	0
293	0
295	0
296	6
297	63
298	164
299	32
300	2
