Mass Spectrum: Phosphinic acid, phenyl-, anhydride with diethylborinic acid
Formula: C10H16BO2P
CAS: 92810-18-9
Molecular weight: 210
m/z	intensity
25	14
27	62
29	60
30	3
31	2
33	0
36	1
37	8
38	7
39	34
40	20
41	66
42	4
43	4
44	0
45	2
46	0
47	578
48	7
49	5
50	35
51	133
52	25
53	8
54	2
55	10
56	0
57	4
58	3
59	11
60	1
61	10
62	2
63	8
64	2
65	8
66	1
67	2
68	3
69	9
70	1
71	2
72	0
73	2
74	10
75	12
76	13
77	167
78	103
79	21
80	2
81	3
82	1
83	4
86	1
87	4
88	7
89	22
90	3
91	5
92	1
93	0
94	1
95	5
96	12
97	4
98	0
99	0
100	0
101	1
102	2
103	10
104	5
105	54
106	9
107	14
108	15
109	25
110	2
111	0
112	0
113	3
114	1
115	1
116	6
117	21
118	2
119	0
120	0
121	0
122	0
123	2
124	27
125	999
126	63
127	3
128	0
129	0
130	0
131	0
132	0
133	2
134	0
135	1
136	1
137	10
138	1
139	0
140	0
141	7
142	22
143	3
144	0
145	1
146	4
147	0
150	2
151	8
152	4
153	19
154	25
155	5
156	1
157	0
158	0
159	0
160	0
161	0
162	0
163	0
164	0
165	1
166	1
167	4
168	0
169	0
171	0
173	0
175	0
177	0
178	1
179	6
180	126
181	542
182	44
183	5
184	0
185	1
186	0
187	0
188	0
189	0
192	0
193	0
194	0
195	1
196	0
197	0
198	0
199	0
200	0
201	1
202	0
203	0
207	0
208	2
209	43
210	157
211	42
212	4
213	0
