Mass Spectrum: (.+/-.)-Eldanolide
Formula: C10H16O2
CAS: 92843-42-0
Molecular weight: 168
m/z	intensity
26	2
27	34
28	6
29	21
31	1
37	1
38	4
39	98
40	21
41	293
42	82
43	389
44	13
45	2
50	6
51	16
52	7
53	51
54	11
55	46
56	8
57	5
58	1
62	2
63	5
64	1
65	14
66	5
67	56
68	31
69	213
70	48
71	595
72	26
73	1
74	1
77	12
78	2
79	12
80	5
81	21
82	8
83	8
84	3
85	2
95	8
96	2
97	5
98	11
99	999
100	57
101	6
108	23
109	32
110	9
111	5
112	3
113	1
123	2
124	1
125	6
126	1
139	1
140	2
150	3
151	1
153	1
167	1
168	123
169	14
170	1
