Mass Spectrum: Sorbic acid, 2-(N-benzylacetimidoyl)-3,5-dihydroxy-, .delta.-lactone
Formula: C15H15NO3
CAS: 92851-24-6
Molecular weight: 257
m/z	intensity
41	80
42	126
43	267
44	3
45	9
47	17
49	96
51	136
52	37
53	33
54	28
55	37
56	6
57	3
58	1
60	0
62	1
63	70
65	344
66	22
67	84
68	2
69	71
70	5
71	5
72	2
74	6
75	7
77	57
78	23
79	14
80	4
81	2
82	16
83	4
84	92
85	53
86	45
87	1
88	6
89	40
91	999
92	65
93	4
95	6
96	18
97	4
102	3
103	2
104	146
106	193
107	7
108	10
109	9
110	8
111	8
115	58
116	74
117	13
118	3
124	62
125	27
126	10
127	15
128	20
129	1
130	52
131	38
132	9
136	1
138	15
139	6
141	1
142	1
144	311
145	48
146	5
148	0
151	12
152	8
153	11
154	5
156	55
157	1
158	23
159	0
160	11
164	0
166	185
167	15
168	9
169	3
170	6
172	74
173	58
174	12
180	1
184	6
186	65
187	9
196	2
197	5
198	3
200	178
201	17
211	0
212	10
214	30
215	15
216	0
226	2
227	1
228	16
229	2
238	1
239	1
240	15
242	15
243	2
254	3
256	12
257	620
258	113
259	11
260	0
