Mass Spectrum: Phenyl (2-(phenylthio)ethyl)carbamate
Formula: C15H15NO2S
CAS: 92850-97-0
Molecular weight: 273
m/z	intensity
14	1
15	8
25	1
26	6
27	19
28	13
29	4
30	3
31	3
32	2
36	1
37	12
38	28
39	120
40	49
41	9
42	29
43	5
44	4
45	317
46	13
47	27
48	1
49	5
50	48
51	115
52	12
53	13
54	2
55	37
56	10
57	6
58	9
59	10
60	4
61	9
62	16
63	35
64	11
65	183
66	146
67	9
68	6
69	38
70	19
71	6
73	5
74	16
75	10
76	9
77	126
78	21
79	68
80	4
81	5
82	10
83	5
84	9
85	1
89	4
90	2
91	25
92	4
93	11
94	629
95	44
96	3
97	6
100	1
103	3
104	4
105	1
106	2
107	4
108	19
109	114
110	118
111	12
112	5
121	12
122	4
123	999
124	91
125	48
126	3
134	1
135	18
136	19
137	29
138	3
139	1
149	1
150	1
179	652
180	77
181	34
182	4
273	17
274	3
275	1
