Mass Spectrum: 2-Thiophenecarboxylic acid, decyl ester
Formula: C15H24O2S
CAS: 92860-60-1
Molecular weight: 268
m/z	intensity
25	3
26	16
27	115
28	6
29	171
30	3
31	3
35	3
36	7
37	18
38	29
39	381
40	21
41	326
42	88
43	267
44	41
45	79
49	9
50	21
51	19
52	9
53	49
54	37
55	208
56	119
57	109
58	31
59	3
62	3
65	6
67	38
68	61
69	142
70	119
71	25
72	6
77	12
78	6
79	6
80	6
81	31
82	51
83	165
84	88
85	39
95	9
96	9
97	49
98	23
99	3
100	5
110	7
111	999
112	115
113	52
126	7
128	588
129	517
130	77
131	28
140	38
141	8
268	25
269	3
270	2
