Mass Spectrum: (2-Selenyl-3-benzo[b]thienylidene)-4-methylaniline
Formula: C16H13NSSe
CAS: 92886-20-9
Molecular weight: 331
m/z	intensity
39	280
41	180
51	210
63	160
65	840
77	180
78	110
89	400
90	150
91	999
92	110
93	50
101	120
102	70
118	120
132	90
133	70
134	230
135	50
145	290
146	50
159	840
160	200
161	70
221	100
222	50
223	140
225	230
227	50
235	120
236	190
237	90
238	230
239	70
240	320
241	50
242	90
248	70
249	110
250	650
251	180
252	60
327	110
328	110
329	280
330	140
331	610
332	110
333	120
