Mass Spectrum: (2-Selenyl-3-benzo[b]thienylidene)aniline
Formula: C15H11NSSe
CAS: 92886-21-0
Molecular weight: 317
m/z	intensity
39	160
50	80
51	450
52	100
75	80
76	50
77	999
78	180
89	180
93	90
101	70
102	50
104	90
121	50
132	50
133	50
134	160
145	150
159	430
160	120
161	30
208	50
213	50
223	60
225	120
235	60
236	400
237	100
238	100
239	20
240	170
241	20
242	40
313	60
314	70
315	130
316	50
317	290
318	60
319	70
