Mass Spectrum: Vinyl ethyl carbitol
Formula: C8H16O4
CAS: 929-72-6
Molecular weight: 176
m/z	intensity
41	22
42	21
43	181
44	56
45	513
46	11
47	10
55	7
56	7
57	18
58	35
59	168
60	15
61	20
69	12
70	9
71	15
72	230
73	492
74	27
75	13
85	4
86	15
87	189
88	26
89	70
90	11
91	10
99	7
100	14
101	36
102	11
103	54
104	5
105	7
107	2
113	4
114	7
115	22
116	59
117	999
118	65
119	10
123	4
129	6
130	23
131	23
133	64
135	25
145	12
147	19
159	9
161	370
162	32
163	14
174	6
175	14
176	98
177	8
