Mass Spectrum: trans-2-Hexadecenoic acid
Formula: C16H30O2
CAS: 929-79-3
Molecular weight: 254
m/z	intensity
15	6
16	1
17	2
18	7
26	8
27	232
28	54
29	548
30	11
31	11
37	1
38	5
39	201
40	47
41	898
42	185
43	999
44	35
45	32
46	1
47	2
50	3
51	11
52	9
53	110
54	123
55	576
56	300
57	573
58	27
59	12
60	47
61	19
62	1
63	2
64	1
65	17
66	19
67	222
68	160
69	387
70	258
71	217
72	13
73	448
74	25
75	3
77	14
78	6
79	39
80	33
81	231
82	206
83	349
84	232
85	97
86	175
87	72
88	9
89	1
91	10
92	4
93	20
94	35
95	173
96	218
97	320
98	221
99	273
100	66
101	59
102	10
103	1
105	5
106	3
107	12
108	26
109	91
110	105
111	152
112	89
113	174
114	102
115	41
116	11
117	2
118	2
119	15
120	7
121	14
122	16
123	71
124	65
125	77
126	52
127	172
128	32
129	38
130	7
131	1
132	1
133	15
134	24
135	14
136	12
137	57
138	61
139	45
140	30
141	29
142	10
143	16
144	13
145	2
147	11
148	17
149	8
150	7
151	40
152	69
153	31
154	20
155	22
156	8
157	37
158	29
159	4
161	9
162	5
163	4
164	3
165	28
166	23
167	11
168	18
169	14
170	5
171	29
172	15
173	2
175	5
176	2
177	2
178	1
179	17
180	9
181	6
182	29
183	9
184	4
185	20
186	28
187	3
189	3
190	1
192	52
193	25
194	85
195	19
196	3
197	5
198	2
199	4
200	2
207	12
208	10
209	2
210	1
211	9
212	2
213	2
218	17
219	4
221	2
225	4
226	3
228	3
229	1
235	2
236	152
237	32
238	4
252	1
254	50
255	16
256	4
