Mass Spectrum: 1,8-Diamino-3,6-dioxaoctane
Formula: C6H16N2O2
CAS: 929-59-9
Molecular weight: 148
m/z	intensity
27	83
29	68
30	999
31	168
41	91
42	117
43	229
44	651
45	81
55	53
56	63
57	208
58	59
61	341
62	43
69	24
70	63
72	141
73	301
81	31
83	88
84	24
85	58
87	81
89	324
98	20
102	49
106	109
112	15
118	8
119	481
120	30
149	19
