Mass Spectrum: Benzothiazole, 2-(4-nitrobenzylthio)-
Formula: C14H10N2O2S2
CAS: 92905-87-8
Molecular weight: 302
m/z	intensity
33	9
34	11
36	3
37	39
38	131
39	428
40	114
41	13
42	6
43	11
44	55
45	277
46	32
47	14
48	6
50	203
51	300
52	137
53	13
54	9
55	8
56	7
57	40
58	79
59	13
60	8
61	37
62	163
63	615
64	280
65	45
66	10
67	4
69	347
70	81
71	39
72	18
73	10
74	51
75	91
76	87
77	148
78	999
79	58
81	60
82	146
83	27
84	23
85	7
86	17
87	24
89	811
90	671
91	63
92	8
93	31
94	31
95	73
96	52
97	9
98	5
99	3
100	8
102	157
103	19
104	9
106	283
107	68
108	591
109	74
110	35
111	17
113	2
114	4
115	12
116	5
117	2
118	2
119	7
120	74
121	125
122	285
123	41
124	15
125	3
126	4
128	24
129	2
132	0
133	48
134	22
135	103
136	171
137	24
138	8
139	50
140	15
141	6
146	4
148	86
149	11
150	10
151	9
152	12
153	5
154	5
159	3
160	8
162	0
163	2
166	507
167	104
168	48
169	10
170	1
171	3
172	0
173	1
177	3
178	13
179	23
180	120
181	15
182	19
183	3
184	2
185	2
190	2
191	1
192	0
195	2
196	2
197	6
198	2
199	2
208	0
209	2
210	15
211	16
212	10
213	1
216	0
217	0
220	0
222	50
223	358
224	69
225	23
226	3
227	0
228	0
229	0
237	1
238	3
239	5
240	1
241	8
242	4
243	0
244	2
252	55
253	11
254	12
255	26
256	48
257	11
258	5
267	1
268	12
269	143
270	30
271	10
272	5
284	0
285	3
286	4
287	27
288	4
289	2
297	0
298	3
299	5
302	912
303	155
304	88
305	13
306	3
