Mass Spectrum: 1H-1,2,4-Triazole, 1-benzyl-3-benzylthio-
Formula: C16H15N3S
CAS: 92969-14-7
Molecular weight: 281
m/z	intensity
33	36
37	3
38	33
39	96
40	31
41	23
44	21
45	19
49	3
50	27
51	52
53	7
55	3
62	13
63	56
65	248
66	5
69	4
70	3
77	44
78	8
79	2
88	1
89	57
91	999
93	33
104	58
105	4
106	5
117	1
118	2
121	44
122	2
123	1
131	8
157	8
190	165
191	5
192	3
247	2
248	80
249	12
279	3
280	12
281	113
282	30
