Mass Spectrum: Methyl 3,4-O-isopropylidene-L-threonate
Formula: C8H14O5
CAS: 92973-40-5
Molecular weight: 190
m/z	intensity
14	1
15	40
16	1
19	6
26	4
27	29
28	14
29	68
30	11
31	56
32	2
33	29
37	1
38	2
39	40
40	10
41	100
42	77
43	999
44	34
45	59
46	2
47	10
53	5
55	306
56	28
57	59
58	21
59	457
60	24
61	119
62	3
63	1
68	1
69	4
70	2
71	28
72	72
73	148
74	10
75	9
76	1
77	2
83	88
84	6
85	16
86	2
87	35
88	2
89	4
90	18
91	1
95	1
99	2
101	552
102	36
103	28
104	1
105	4
113	9
115	276
116	18
117	3
129	1
131	122
132	10
133	9
134	1
143	1
145	2
147	11
148	1
159	1
173	1
175	457
176	36
177	6
178	1
