Mass Spectrum: Cyclohexanone, 2-[2,2-bis(phenylsulfonyl)ethyl]-
Formula: C20H22O5S2
CAS: 92976-62-0
Molecular weight: 406
m/z	intensity
26	10
27	169
28	25
29	78
30	1
31	10
37	4
38	15
39	220
40	44
41	378
42	74
43	46
44	4
45	29
46	2
47	5
48	7
49	3
50	97
51	404
52	47
53	161
54	58
55	312
56	18
57	39
58	6
59	7
62	6
63	23
64	8
65	92
66	52
67	260
68	61
69	33
70	33
71	8
72	2
73	6
74	21
75	26
76	35
77	999
78	200
79	171
80	45
81	96
82	13
83	32
84	5
85	33
86	2
87	4
89	7
90	9
91	98
92	14
93	56
94	86
95	289
96	50
97	220
98	415
99	33
100	2
101	1
102	4
103	20
104	17
105	47
106	7
107	19
108	6
109	64
110	17
111	71
112	6
113	3
114	2
115	22
116	8
117	17
118	5
119	7
120	4
121	175
122	254
123	782
124	82
125	670
126	76
127	38
128	15
129	13
130	10
131	6
132	1
134	2
135	7
136	3
137	38
138	5
139	24
140	3
141	140
142	17
143	144
144	11
145	7
146	1
147	2
149	8
150	2
151	2
152	6
153	8
154	5
155	3
156	2
157	1
163	8
164	1
165	3
166	2
167	4
168	2
169	62
170	9
171	7
172	4
173	3
174	11
175	1
178	1
179	11
180	2
181	1
182	1
183	2
184	1
191	2
192	0
193	1
194	1
195	13
196	1
197	1
198	1
199	1
200	1
201	2
202	2
203	2
208	5
209	28
210	3
211	2
219	3
220	2
221	20
222	1
223	1
229	5
230	1
231	2
232	7
233	1
235	4
236	3
237	25
238	7
239	1
240	1
245	2
246	4
247	47
248	8
249	3
250	3
251	0
263	198
264	196
265	127
266	26
267	6
268	0
296	8
297	1
298	0
309	50
310	9
311	4
312	0
363	0
406	137
407	31
408	16
409	1
