Mass Spectrum: 9-[5-(Diethylamino)pentanamido]-10,10-dimethyl-9,10-dihydro-10-sila-2-azaanthracene
Formula: C23H33N3OSi
CAS: 92973-67-6
Molecular weight: 395
m/z	intensity
86	999
87	100
209	140
210	70
224	610
225	330
226	110
239	220
240	60
324	70
358	100
366	170
380	70
395	230
396	70
