Mass Spectrum: Silane, 2-cyclohexen-1-yltriethyl-
Formula: C12H24Si
CAS: 92992-63-7
Molecular weight: 196
m/z	intensity
25	1
26	9
27	74
28	7
29	89
30	8
31	123
33	4
37	0
38	1
39	36
40	5
41	54
42	9
43	84
44	18
45	50
46	3
47	1
50	3
51	11
52	8
53	56
54	14
55	67
56	25
57	98
58	103
59	519
60	41
61	18
62	1
63	1
65	8
66	10
67	15
68	3
69	13
70	4
71	9
72	4
73	9
74	1
75	0
77	38
78	16
79	120
80	50
81	61
82	9
83	23
84	3
85	13
87	999
88	102
89	39
90	1
91	3
92	0
93	4
94	0
95	6
96	1
97	3
98	1
99	0
101	0
103	0
105	5
106	1
107	9
108	1
109	10
110	3
111	11
112	1
113	3
115	719
116	85
117	28
118	1
123	0
125	0
135	2
136	0
137	1
138	1
139	14
140	2
141	0
163	1
165	0
167	24
168	4
169	1
196	43
197	7
198	2
