Mass Spectrum: Bicyclo[3.2.0]hept-2-en-6-ol, 7,7-dichloro-
Formula: C7H8Cl2O
CAS: 92998-64-6
Molecular weight: 178
m/z	intensity
26	28
27	111
28	34
29	69
30	0
31	35
35	0
36	19
37	14
38	40
39	202
40	81
41	47
42	2
43	24
44	10
45	0
47	0
48	10
49	20
50	103
51	179
52	44
53	70
54	15
55	47
56	2
57	31
59	0
60	4
61	25
62	25
63	57
64	7
65	104
66	999
67	107
68	0
69	0
70	0
73	37
74	13
75	50
76	18
77	340
78	82
79	243
80	20
81	19
82	10
83	0
84	0
85	23
86	2
87	21
88	0
89	22
90	1
91	20
92	1
95	1
99	27
100	156
101	27
102	56
103	2
105	12
106	8
107	78
108	10
109	15
111	27
112	34
113	111
114	27
115	64
116	3
117	9
122	26
123	0
124	16
125	27
126	3
127	0
128	0
141	1
142	30
143	8
144	7
145	0
149	0
155	0
