Mass Spectrum: 2,4,5-T Isopropyl ester
Formula: C11H11Cl3O3
CAS: 93-78-7
Molecular weight: 296
m/z	intensity
15	274
27	508
29	196
41	528
42	286
43	999
62	66
73	58
74	105
97	97
99	38
108	44
109	110
111	51
143	80
145	104
146	77
179	86
181	89
196	120
198	108
200	34
209	194
211	174
213	54
219	76
221	47
254	43
255	33
256	40
292	13
296	91
298	81
