Mass Spectrum: Acetamide, 2-chloro-N,N-di-2-propenyl-
Formula: C8H12ClNO
CAS: 93-71-0
Molecular weight: 173
m/z	intensity
40	539
41	999
42	175
43	50
48	85
49	130
50	35
51	60
52	35
53	80
54	155
55	430
56	824
57	60
66	35
67	110
68	160
69	200
70	410
71	25
75	20
76	95
77	180
78	55
79	120
80	115
81	200
82	175
83	60
84	50
93	25
94	65
95	85
96	220
97	35
98	45
106	30
107	35
108	25
109	30
110	50
123	35
124	165
130	30
131	120
132	395
133	60
134	125
137	75
138	370
139	35
145	20
146	30
158	25
172	30
173	70
174	60
175	25
