Mass Spectrum: 1H-Imidazole, 2,4-dimethyl-
Formula: C5H8N2
CAS: 930-62-1
Molecular weight: 96
m/z	intensity
38	60
39	110
40	90
41	170
42	590
43	60
44	10
51	60
52	150
53	90
54	640
55	330
56	60
57	10
65	10
66	50
67	60
68	350
69	60
70	10
81	190
82	10
94	60
95	840
96	999
97	60
