Mass Spectrum: Bicyclo[2.2.1]heptane, 1-iodo-
Formula: C7H11I
CAS: 930-80-3
Molecular weight: 222
m/z	intensity
27	71
28	13
29	25
37	4
38	15
39	142
40	30
41	133
42	7
43	9
44	6
45	3
50	14
51	28
52	15
53	85
54	25
55	145
56	8
57	3
60	2
61	3
62	6
63	13
64	5
65	51
66	66
67	269
68	18
69	3
71	2
75	2
76	2
77	48
78	11
79	46
80	24
81	4
91	27
92	6
93	64
94	9
95	999
96	90
97	6
127	21
128	7
141	2
149	2
152	3
153	3
155	2
167	4
180	2
181	5
182	2
192	7
193	10
220	3
222	373
223	33
