Mass Spectrum: Cyclohexene, 4-chloro-
Formula: C6H9Cl
CAS: 930-65-4
Molecular weight: 116
m/z	intensity
12	4
13	4
14	8
15	64
25	7
26	88
27	354
28	68
29	23
31	1
35	8
36	15
37	41
38	77
39	427
40	52
41	186
42	9
43	1
47	2
48	3
49	35
50	102
51	161
52	79
53	204
54	426
55	40
56	2
57	3
60	2
61	13
62	19
63	25
64	7
65	60
66	26
67	41
68	2
72	1
73	11
74	13
75	85
76	9
77	147
78	69
79	482
80	999
81	440
82	27
83	1
87	2
88	38
89	2
90	12
101	4
103	1
115	1
116	96
117	7
118	30
119	2
