Mass Spectrum: Cyclopentane, chloro-
Formula: C5H9Cl
CAS: 930-28-9
Molecular weight: 104
m/z	intensity
26	26
27	102
28	10
29	21
31	9
35	1
36	3
37	20
38	40
39	227
40	73
41	399
42	463
43	19
47	0
48	0
49	14
50	15
51	23
52	3
53	46
54	1
55	55
56	0
60	0
61	11
62	38
63	18
64	12
65	21
66	7
67	285
68	999
69	316
70	12
71	0
73	1
75	29
76	59
77	8
78	15
79	0
89	1
91	2
93	0
97	0
104	2
