Mass Spectrum: 3(2H)-Isoxazolone, 4,5-dimethyl-
Formula: C5H7NO2
CAS: 930-83-6
Molecular weight: 113
m/z	intensity
40	110
41	170
42	999
43	420
44	50
50	50
51	60
52	90
53	60
54	60
55	50
68	20
70	50
84	20
113	110
114	10
