Mass Spectrum: N-[4-(Benzyloxy)phenyl]-N-methylacetamide
Formula: C16H17NO2
CAS: 93008-39-0
Molecular weight: 255
m/z	intensity
37	2
38	18
39	129
40	13
41	39
42	42
43	324
44	15
49	1
50	22
51	64
52	46
53	29
54	7
55	7
56	20
61	3
62	11
63	67
64	38
65	264
66	40
67	14
68	4
73	8
74	1
75	2
76	5
77	28
78	15
79	10
80	10
81	6
82	3
89	26
91	999
92	105
93	18
94	52
95	4
104	3
105	3
106	4
107	2
108	7
109	2
120	2
121	4
122	14
123	6
124	1
136	4
137	1
148	1
163	1
164	13
165	3
182	1
183	2
197	1
198	4
199	3
212	10
213	22
214	2
226	5
227	6
228	1
240	21
241	4
242	1
255	45
256	7
257	1
