Mass Spectrum: Cyclohexyl N-(2-(benzoyloxy)ethyl)carbamate
Formula: C16H21NO4
CAS: 93025-63-9
Molecular weight: 291
m/z	intensity
14	1
15	8
26	3
27	23
28	26
29	26
30	68
31	10
32	1
37	1
38	3
39	22
40	6
41	63
42	31
43	90
44	84
45	9
49	1
50	20
51	80
52	6
53	9
54	34
55	80
56	39
57	235
58	19
59	3
62	1
63	1
65	3
66	2
67	71
68	5
69	42
70	13
71	36
72	19
73	1
74	9
75	7
76	13
77	324
78	25
79	9
80	2
81	19
82	159
83	194
84	12
85	3
87	67
88	46
89	2
91	6
92	7
93	1
94	1
95	1
96	2
97	2
98	1
99	15
100	12
103	2
104	7
105	999
106	80
107	5
110	3
112	14
113	1
117	4
118	2
119	5
120	1
121	1
122	259
123	40
124	3
135	10
136	3
137	1
146	1
147	20
148	2
149	4
156	6
166	16
167	2
169	154
170	15
171	1
191	9
192	2
210	4
