Mass Spectrum: (Z)-(Z)-Docos-13-en-1-yl icos-11-enoate
Formula: C42H80O2
CAS: 93036-93-2
Molecular weight: 616
m/z	intensity
26	1
27	6
29	19
37	1
39	21
40	5
41	193
42	50
43	268
44	8
45	3
53	23
54	141
55	746
56	195
57	460
58	21
59	5
60	11
62	1
65	11
66	27
67	412
68	257
69	934
70	220
71	297
72	15
73	31
77	12
78	9
79	77
80	91
81	520
82	609
83	982
84	175
85	203
86	14
87	21
88	2
90	1
91	20
92	5
93	72
94	86
95	623
96	718
97	999
98	202
99	72
100	18
101	52
102	5
105	11
106	5
107	60
108	71
109	475
110	398
111	566
112	98
113	52
114	30
115	62
116	11
119	24
120	13
121	178
122	105
123	353
124	337
125	293
126	62
127	74
128	13
129	48
130	5
131	6
133	29
134	26
135	148
136	104
137	253
138	261
139	175
140	48
141	37
142	6
143	37
144	5
147	24
148	16
149	95
150	96
151	145
152	178
153	127
154	34
155	35
156	7
157	33
158	5
159	5
161	24
162	10
163	61
164	72
165	113
166	137
167	83
168	34
169	25
170	6
171	31
172	6
173	6
175	25
176	7
177	47
178	52
179	104
180	100
181	66
182	31
183	25
184	4
185	29
186	6
187	5
188	2
189	16
190	6
191	35
192	52
193	87
194	107
195	64
196	29
197	20
198	6
199	24
200	4
203	10
204	4
205	24
206	50
207	91
208	111
209	65
210	31
211	21
212	5
213	19
214	8
216	1
217	9
219	23
220	29
221	73
222	88
223	55
224	30
225	16
226	5
227	19
228	7
231	5
232	3
233	17
234	24
235	64
236	73
237	41
238	25
239	13
240	5
241	14
242	4
245	6
247	23
248	79
249	79
250	91
251	44
252	20
253	9
254	3
255	11
257	2
261	13
262	30
263	60
264	43
265	32
266	16
267	11
268	5
269	7
272	3
273	22
274	19
275	50
276	107
277	59
278	109
279	38
280	18
281	7
283	7
287	2
289	9
290	263
291	110
292	293
293	367
294	85
295	41
296	9
297	4
298	1
301	4
302	4
303	16
304	202
305	72
306	190
307	128
308	80
309	19
310	14
311	71
312	15
313	34
314	7
316	1
317	5
318	56
319	30
320	94
321	151
322	45
323	23
324	6
325	5
332	5
333	13
334	10
335	31
336	34
337	12
338	7
339	13
340	3
341	6
347	8
348	6
349	17
350	15
351	14
352	4
360	3
361	4
362	6
363	19
364	20
365	7
366	5
374	4
375	6
377	17
378	19
379	8
380	4
382	1
388	3
389	6
390	4
391	15
392	19
393	8
395	1
402	4
403	7
404	4
405	13
406	17
407	8
410	1
419	10
420	21
421	11
432	4
433	10
434	20
435	9
436	3
438	1
443	2
445	3
446	3
447	14
448	22
449	12
451	2
452	1
458	2
461	14
462	25
463	11
464	2
465	2
466	1
472	2
475	13
476	27
477	15
478	5
480	1
486	2
488	2
489	17
490	32
491	9
499	1
501	3
502	2
503	7
504	27
513	1
516	2
517	16
518	26
519	10
529	2
531	9
563	1
577	1
588	6
617	117
618	49
