Mass Spectrum: Cyclopent-3-ene, 1,1-dichloro-3,4-dimethyl-1-sila-
Formula: C6H10Cl2Si
CAS: 93037-56-0
Molecular weight: 180
m/z	intensity
39	30
41	50
55	519
56	20
67	999
68	60
82	889
83	60
129	80
130	10
131	30
144	120
145	10
146	40
165	160
166	20
167	110
168	10
169	20
180	210
181	30
182	140
183	20
184	20
