Mass Spectrum: Benzaldehyde, 2-hydroxy-5-nitro-, phenylhydrazone
Formula: C13H11N3O3
CAS: 93044-40-7
Molecular weight: 257
m/z	intensity
33	19
34	1
36	5
37	48
38	145
39	488
40	67
41	66
42	17
43	19
44	19
45	13
46	21
48	3
50	147
51	341
52	144
53	162
54	43
55	24
56	4
57	6
58	3
59	1
60	6
61	27
62	87
63	263
64	244
65	999
66	230
68	24
69	7
70	3
71	5
72	10
73	7
74	34
75	31
76	50
77	260
78	67
79	34
80	25
81	6
82	5
83	3
84	3
85	5
86	4
87	6
88	9
89	12
90	41
91	240
92	928
93	904
94	86
96	3
97	2
98	3
99	4
100	2
101	7
102	5
103	5
104	14
105	26
106	16
107	14
108	12
109	3
110	2
111	2
112	1
113	2
114	3
115	8
116	4
117	6
118	24
119	115
120	22
121	4
122	2
123	2
124	0
125	0
126	3
127	9
128	19
129	22
130	4
131	2
132	1
133	2
134	8
135	3
136	11
137	2
138	1
139	5
140	3
141	2
142	1
143	3
144	3
145	1
146	0
147	0
148	1
149	3
150	8
151	4
152	11
153	8
154	18
155	7
156	5
157	1
158	0
159	0
160	0
161	0
162	0
163	1
164	5
165	7
166	18
167	10
168	4
169	4
170	2
171	3
172	1
173	0
176	0
179	2
180	3
181	19
182	18
183	9
184	4
185	2
186	0
187	0
188	0
189	0
190	0
191	1
192	2
193	4
194	9
195	4
196	2
197	1
198	0
199	0
200	0
204	0
205	0
207	0
208	3
209	10
210	35
211	9
212	2
213	0
214	0
216	0
220	0
222	12
223	5
224	1
225	0
226	1
227	1
228	0
229	1
230	1
231	0
236	0
237	0
238	3
239	6
240	39
241	8
242	1
249	0
250	0
251	1
252	1
256	175
257	463
258	67
259	7
260	0
