Mass Spectrum: 5,5'-Bi-1-pyrroline, 2,2'-diethoxy-
Formula: C12H20N2O2
CAS: 93042-03-6
Molecular weight: 224
m/z	intensity
25	2
26	15
27	98
28	131
29	127
30	21
31	28
33	1
34	1
35	1
36	1
37	2
38	1
39	27
40	13
41	180
42	23
43	27
44	14
45	17
46	5
47	1
48	1
50	2
51	3
52	6
53	12
54	35
55	100
56	101
57	28
58	2
59	2
60	2
62	3
63	10
64	2
65	5
66	10
67	16
68	16
69	16
70	7
71	9
72	2
73	2
74	1
75	1
76	1
77	5
78	3
79	5
80	6
81	11
82	21
83	25
84	999
85	58
86	8
91	2
92	1
93	3
94	4
95	8
96	10
97	11
98	7
99	2
104	2
105	6
106	2
107	3
108	3
109	6
110	10
111	13
112	950
113	220
114	22
115	2
119	1
121	2
122	5
123	5
124	5
125	4
126	1
127	1
128	1
129	1
131	1
132	2
133	1
134	1
135	2
136	1
137	2
138	2
139	4
140	3
141	2
142	1
149	12
150	3
151	4
152	3
153	1
165	1
166	1
167	2
178	1
179	1
181	3
195	53
196	7
197	1
198	1
200	1
201	1
203	2
204	1
205	2
209	2
210	0
224	65
225	9
226	1
