Mass Spectrum: Isopropylamine, N-tert-butyldimethylsilyl-
Formula: C9H23NSi
CAS: 93066-38-7
Molecular weight: 173
m/z	intensity
15	1
27	3
28	1
29	8
30	2
31	3
39	5
40	1
41	15
42	6
43	17
44	16
45	14
46	8
47	1
50	5
53	1
54	1
55	3
56	4
57	11
58	30
59	90
60	12
61	3
67	1
68	1
69	1
70	4
71	2
73	151
74	31
75	7
76	1
82	1
83	2
84	3
85	3
86	15
87	2
88	1
96	1
97	1
98	3
99	7
100	33
101	12
102	15
103	2
114	81
116	999
117	110
118	39
119	2
142	1
158	87
159	12
160	3
172	6
173	33
174	5
175	1
