Mass Spectrum: Imidazolo[1,2-a]pyridine-6-carbonitrile, 1,2,3,5-tetrahydro-1-(4-acetylaminophenyl)-7-methyl-5-oxo-
Formula: C17H16N4O2
CAS: 93066-01-4
Molecular weight: 308
m/z	intensity
37	7
38	16
39	46
40	28
41	47
43	999
44	33
45	7
46	1
50	25
51	53
52	72
53	50
54	19
55	13
56	3
57	7
60	1
61	1
62	14
63	49
64	47
65	51
66	16
67	17
68	2
69	4
74	5
75	11
76	26
77	56
78	87
79	45
80	37
81	7
83	1
87	0
88	2
89	16
90	30
91	46
92	38
93	14
94	2
97	0
101	2
102	4
103	7
104	24
105	20
106	37
107	21
108	18
109	1
111	0
112	1
116	8
117	20
118	34
119	51
120	14
122	0
127	4
128	3
129	3
130	6
131	18
132	17
133	45
134	6
140	4
143	4
144	5
145	8
146	6
148	2
150	4
154	3
155	6
156	2
157	3
158	2
159	11
166	1
167	1
168	2
169	3
170	3
174	1
180	1
181	2
183	1
184	0
193	0
194	1
195	1
196	3
197	1
208	3
209	4
210	0
220	1
221	4
222	5
224	6
236	1
237	5
240	1
249	0
252	0
263	1
264	8
265	101
266	80
267	10
292	2
307	12
308	90
309	13
