Mass Spectrum: 1H-Imidazole, 2-ethyl-4,5-dihydro-4-methyl-
Formula: C6H12N2
CAS: 931-35-1
Molecular weight: 112
m/z	intensity
12	1
13	1
14	8
15	73
16	2
25	3
26	49
27	200
28	67
29	216
30	83
31	5
37	6
38	11
39	85
40	36
41	240
42	217
43	59
44	332
45	16
46	3
47	8
48	40
49	1
50	1
51	7
52	25
53	15
54	287
55	73
56	378
57	98
58	38
59	5
60	1
63	1
64	1
65	3
66	7
67	18
68	244
69	999
70	120
71	10
72	62
73	172
74	7
75	1
80	9
81	17
82	289
83	557
84	43
85	7
86	12
87	7
88	1
93	2
94	3
95	54
96	33
97	695
98	50
99	4
107	2
108	3
109	35
110	23
111	162
112	587
113	45
114	2
