Mass Spectrum: 5-Azacytosine
Formula: C3H4N4O
CAS: 931-86-2
Molecular weight: 112
m/z	intensity
27	18
29	9
41	74
42	243
43	391
44	147
53	38
68	52
69	126
70	73
71	66
84	29
85	45
111	28
112	999
113	49
