Mass Spectrum: Silane, (4-methylphenyl)-
Formula: C7H10Si
CAS: 931-70-4
Molecular weight: 122
m/z	intensity
26	1
27	9
28	5
29	27
30	6
31	6
37	2
38	6
39	46
40	4
41	9
42	11
43	87
44	49
45	8
46	2
49	0
50	9
51	19
52	7
53	191
54	30
55	58
56	5
57	2
59	7
60	19
62	7
63	21
64	6
65	75
66	49
67	93
68	18
69	27
70	3
71	1
74	1
75	0
76	2
77	43
78	18
79	35
80	12
81	29
82	14
83	2
84	1
85	0
86	1
87	0
88	0
89	15
91	999
92	126
93	167
94	47
95	63
96	20
97	3
98	0
101	2
103	11
104	4
105	206
106	36
107	122
108	14
109	4
113	0
117	32
118	11
119	167
120	176
121	345
122	604
123	80
124	22
125	1
