Mass Spectrum: 6-Azacytosine
Formula: C3H4N4O
CAS: 931-85-1
Molecular weight: 112
m/z	intensity
12	9
13	22
14	24
15	11
16	11
17	3
18	10
24	3
25	4
26	9
27	64
28	244
29	75
30	4
31	1
32	2
34	2
35	2
38	15
39	49
40	108
41	237
42	340
43	160
44	40
45	3
46	1
50	1
51	1
52	8
53	40
54	12
55	152
56	175
57	9
60	2
66	6
67	56
68	21
69	155
70	11
71	3
73	1
76	1
77	1
80	1
81	4
82	1
83	2
84	108
85	9
86	1
91	1
94	1
95	2
96	4
97	2
109	1
110	1
111	32
112	999
113	62
114	4
115	1
