Mass Spectrum: Cyclohexylacetylene
Formula: C8H12
CAS: 931-48-6
Molecular weight: 108
m/z	intensity
15	19
18	12
26	51
27	276
28	77
29	77
32	4
37	24
38	77
39	550
40	121
41	433
42	31
43	23
50	146
51	220
52	208
53	159
54	200
55	97
56	58
61	9
62	27
63	65
64	9
65	233
66	167
67	372
68	35
69	11
74	19
75	10
77	400
78	161
79	999
80	389
81	49
82	80
91	316
93	906
94	72
103	7
105	17
107	43
108	68
