Mass Spectrum: (E)-2-Methyl-6-(p-tolyl)hept-2-en-1-yl acetate
Formula: C17H24O2
CAS: 93125-00-9
Molecular weight: 260
m/z	intensity
27	5
29	17
30	2
37	1
38	1
39	30
40	5
41	78
42	6
43	284
44	9
50	3
51	16
52	4
53	31
54	5
55	22
57	11
58	4
59	1
61	5
62	3
63	10
65	48
66	6
67	36
69	10
71	16
74	2
75	2
76	4
77	58
78	26
79	50
80	5
81	47
83	14
84	5
85	3
89	10
90	3
91	128
92	14
93	21
95	12
97	5
98	3
99	2
100	2
101	1
102	7
103	44
104	31
105	206
106	23
108	13
109	10
110	5
111	4
113	1
114	1
115	68
116	25
117	145
118	57
119	999
120	132
125	4
126	3
127	4
128	20
129	19
130	9
131	46
132	437
133	66
135	9
136	2
137	3
141	8
142	6
143	88
144	23
145	79
146	10
147	3
148	4
152	6
153	2
154	3
155	3
156	4
157	63
158	83
159	19
162	10
163	7
165	4
167	3
169	2
170	3
171	10
172	5
177	3
178	2
179	1
184	1
185	25
186	3
191	2
194	2
195	1
198	2
199	3
200	44
201	8
202	2
217	4
218	8
220	3
223	1
260	50
261	10
