Mass Spectrum: 2-Hydroxy-3-isopropyl-5-piperidinomethyl-2,4,6-cycloheptatrien-1-one
Formula: C16H23NO2
CAS: 93148-22-2
Molecular weight: 261
m/z	intensity
15	4
17	30
18	2
26	2
27	23
28	33
29	31
30	34
38	1
39	28
40	5
41	86
42	71
43	43
44	56
45	3
46	1
50	5
51	24
52	12
53	18
54	9
55	91
56	55
57	37
58	3
59	1
60	2
62	2
63	7
64	4
65	18
66	7
67	13
68	9
69	40
70	34
71	4
72	2
73	2
74	2
75	3
76	2
77	42
78	19
79	30
80	9
81	8
82	16
83	35
84	943
85	136
86	24
87	2
88	3
89	8
90	4
91	43
92	6
93	9
94	10
95	8
96	21
97	134
98	999
99	74
100	4
101	3
102	7
103	15
104	5
105	38
106	9
107	29
108	9
109	7
110	11
111	9
112	9
113	4
114	2
115	31
116	16
117	12
118	4
119	10
120	9
121	14
122	15
123	20
124	4
125	3
126	1
127	3
128	6
129	9
130	8
131	14
132	7
133	76
134	20
135	27
136	22
137	9
138	80
139	8
141	1
142	1
143	3
144	7
145	13
146	4
147	15
148	20
149	80
150	21
151	3
152	1
157	1
158	3
159	11
160	9
161	24
162	13
163	51
164	9
165	3
172	3
173	2
174	2
175	5
176	82
177	144
178	73
179	9
180	1
183	1
187	9
188	4
189	3
190	24
191	5
192	2
200	4
201	2
202	3
203	1
204	6
205	1
206	1
215	1
216	14
217	5
218	262
219	46
220	7
228	1
230	1
232	29
233	20
234	3
242	1
244	9
245	2
246	62
247	9
248	1
259	2
260	71
261	495
262	94
263	9
