Mass Spectrum: Cyclohexanecarboxamide, n-nonyl-
Formula: C16H31NO
CAS: 93153-01-6
Molecular weight: 253
m/z	intensity
36	11
37	7
38	3
39	102
40	55
41	657
42	355
43	569
44	369
45	133
46	25
53	48
54	45
55	999
56	338
57	224
58	78
59	17
60	4
67	72
68	25
69	12
70	9
71	65
72	43
73	107
74	25
77	0
79	2
81	8
82	16
83	279
84	242
85	45
86	64
87	40
88	12
93	0
94	0
96	0
98	0
99	2
100	43
101	16
102	0
110	2
111	82
112	58
113	11
114	18
115	1
126	10
127	2
128	47
129	11
140	12
141	208
142	79
143	8
154	60
155	25
156	6
167	2
168	157
169	65
170	117
171	42
182	50
183	18
185	17
196	28
197	19
198	165
199	82
200	6
210	23
211	8
212	18
213	0
224	36
225	22
226	0
238	9
239	5
252	6
253	72
254	25
255	0
