Mass Spectrum: Tungsten,1,2- .eta.2-(1,3-butadiene)pentacarbonyl-
Formula: C9H6O5W
CAS: 93167-19-2
Molecular weight: 378
m/z	intensity
27	209
28	999
29	14
30	3
36	2
37	17
38	24
39	321
40	31
41	4
42	3
43	3
44	2
48	3
49	23
50	91
51	72
52	37
53	204
54	288
55	13
56	2
57	1
65	1
69	1
91	1
98	1
105	1
107	1
110	1
116	5
117	20
118	21
119	17
120	3
121	1
123	1
125	1
126	1
131	6
132	14
133	13
134	6
135	1
145	5
146	8
147	8
148	3
160	3
161	3
162	3
174	3
175	3
176	3
182	15
183	10
184	18
185	1
186	17
187	1
194	3
195	5
196	8
197	5
198	8
199	4
200	3
202	1
206	5
207	30
208	70
209	59
210	93
211	47
212	91
213	12
214	18
215	4
218	4
219	6
220	21
221	16
222	24
223	13
224	22
225	6
226	4
227	2
228	2
230	2
231	8
232	28
233	37
234	144
235	97
236	214
237	58
238	206
239	35
240	67
241	8
242	38
243	5
244	1
245	1
246	3
247	2
248	3
249	2
250	4
251	1
252	4
253	2
254	3
255	2
256	1
258	1
260	1
261	2
262	42
263	27
264	193
265	91
266	226
267	45
268	206
269	14
270	59
271	5
279	1
280	1
286	1
288	2
289	1
290	9
291	7
292	144
293	124
294	260
295	55
296	275
297	19
298	95
299	5
318	1
319	2
320	62
321	40
322	87
323	16
324	98
325	6
326	20
327	1
348	77
349	40
350	93
351	9
352	93
353	9
354	4
376	91
377	54
378	98
379	12
380	98
381	11
