Mass Spectrum: Hexa-t-butylselenatrisiletane
Formula: C24H54SeSi3
CAS: 93194-15-1
Molecular weight: 506
m/z	intensity
50	30
51	54
52	13
53	40
54	20
55	334
56	210
57	846
58	60
59	443
60	53
61	51
62	10
63	27
64	9
65	49
66	14
67	102
68	31
69	218
70	175
71	339
72	42
73	999
74	143
75	132
76	47
77	67
78	13
79	34
80	20
81	123
82	57
83	191
84	80
85	230
86	34
87	47
88	31
89	40
90	10
91	99
92	24
93	48
94	28
95	113
96	56
97	154
98	33
99	273
100	56
101	84
102	43
103	51
104	42
105	78
106	39
107	35
108	15
109	87
110	47
111	151
112	56
113	168
114	29
115	113
116	48
117	69
118	15
119	59
120	24
121	47
122	34
123	57
124	29
125	70
126	26
127	250
128	54
129	169
130	67
131	88
132	32
133	48
134	15
135	35
136	19
137	38
138	17
139	149
140	33
141	55
142	37
143	110
144	70
145	46
146	16
147	41
148	12
149	859
150	91
151	35
152	32
153	93
154	24
155	53
156	18
157	57
158	28
159	56
160	12
161	29
162	17
163	29
164	10
165	33
166	14
167	377
168	41
169	43
170	14
171	86
172	142
173	39
174	17
175	23
176	22
177	27
178	112
179	36
180	11
181	76
182	32
183	33
184	7
185	36
186	15
187	14
188	8
189	20
190	8
191	20
192	18
193	57
194	14
195	86
196	17
197	38
198	11
199	18
200	30
201	13
202	10
203	12
204	7
205	39
206	14
207	63
208	14
209	82
210	17
211	30
212	6
213	9
214	3
215	10
216	6
217	16
218	8
219	35
220	14
221	50
222	13
223	69
224	14
225	23
226	7
227	79
228	140
229	36
230	14
231	24
232	7
233	28
234	9
235	50
236	9
237	27
238	11
239	25
240	7
241	5
242	5
243	10
245	11
246	5
247	20
248	10
249	41
250	22
251	40
252	10
253	23
254	3
255	14
256	4
257	4
259	5
260	3
261	10
262	6
263	14
264	7
265	21
266	4
267	24
268	5
269	13
271	4
272	4
273	4
274	3
275	11
276	8
277	30
278	10
279	102
280	21
281	26
282	10
283	7
284	20
285	7
286	4
287	6
288	3
289	5
291	9
292	8
293	19
294	6
295	21
296	6
297	8
298	3
299	4
301	3
303	6
305	7
306	4
307	12
308	7
309	14
310	8
311	6
312	8
313	4
316	3
317	3
319	4
320	3
321	3
323	6
325	4
326	3
327	6
328	3
329	5
331	8
332	5
333	13
334	13
335	32
336	15
337	34
338	9
339	11
340	5
341	8
342	4
343	13
344	4
345	8
347	6
348	7
349	12
350	5
351	21
352	9
353	7
354	3
355	16
356	4
357	4
367	3
369	4
370	3
371	3
377	6
379	3
380	3
381	9
382	3
383	7
384	3
385	10
386	4
387	11
388	5
389	61
390	61
391	150
392	60
393	313
394	95
395	96
396	26
397	8
401	5
402	3
403	3
405	7
407	7
409	3
413	3
415	6
417	3
423	3
424	3
425	9
426	4
427	15
428	4
429	13
430	5
431	4
443	5
445	17
446	18
447	54
448	25
449	106
450	40
451	33
452	10
453	6
467	3
468	3
469	3
471	4
472	4
473	4
479	3
480	4
481	7
483	14
484	5
485	4
503	3
504	4
506	6
