Mass Spectrum: Cyclohexane, ethoxy-
Formula: C8H16O
CAS: 932-92-3
Molecular weight: 128
m/z	intensity
24	0
25	0
26	6
27	93
28	1
29	135
30	6
31	37
33	0
37	0
38	4
39	60
40	10
41	146
42	25
43	55
44	115
45	17
46	0
47	2
49	0
50	2
51	5
52	3
53	23
54	40
55	153
56	21
57	825
58	40
59	15
60	0
62	0
63	0
65	3
66	2
67	60
68	4
69	6
70	4
71	30
72	51
73	3
74	0
77	5
78	2
79	9
80	1
81	31
82	89
83	70
84	5
85	999
86	58
87	3
97	0
98	1
99	99
100	8
101	0
113	2
127	4
128	194
129	16
130	1
