Mass Spectrum: 2,3-Thiophenedicarboxaldehyde
Formula: C6H4O2S
CAS: 932-41-2
Molecular weight: 140
m/z	intensity
27	6
28	19
29	111
33	3
36	5
37	61
38	89
39	903
40	25
41	10
42	2
43	1
44	13
45	466
46	5
47	12
48	3
49	27
50	41
51	29
52	3
53	20
55	4
56	15
57	82
58	112
59	4
60	6
61	11
62	5
66	5
67	2
68	15
69	43
70	3
71	2
73	1
77	10
79	6
80	6
81	55
82	62
83	414
84	61
85	21
86	35
87	2
90	9
93	7
95	2
101	2
104	1
108	2
109	5
110	16
111	999
112	902
113	66
114	23
139	110
140	871
141	39
142	20
