Mass Spectrum: Phenol, 2-(aminomethyl)-
Formula: C7H9NO
CAS: 932-30-9
Molecular weight: 123
m/z	intensity
29	79
30	154
37	37
38	110
39	137
40	55
41	87
42	118
43	50
44	30
45	10
46	3
47	5
50	121
51	235
52	155
53	73
54	34
55	20
59	4
60	16
61	19
62	37
63	91
64	28
65	97
66	75
67	34
68	2
74	18
75	10
76	27
77	320
78	999
79	94
80	1
92	2
93	19
94	36
95	83
96	9
103	2
104	29
105	42
106	453
107	62
108	1
122	316
123	709
124	48
125	5
