Mass Spectrum: Cycloheptanone, 2-methyl-
Formula: C8H14O
CAS: 932-56-9
Molecular weight: 126
m/z	intensity
26	18
27	172
29	164
30	1
31	8
33	1
34	3
35	2
37	3
38	9
39	182
40	45
41	612
42	545
43	145
44	73
45	8
46	3
47	2
48	3
50	8
51	17
52	8
53	53
54	59
55	999
56	446
57	113
58	69
59	6
61	2
62	2
63	4
64	1
65	9
66	9
67	264
68	231
69	483
70	326
71	45
72	13
73	1
74	1
77	9
78	6
79	36
80	19
81	31
82	351
83	331
84	273
85	22
86	2
91	7
92	2
93	90
94	9
95	19
96	6
97	161
98	595
99	42
100	2
105	1
106	1
107	5
108	17
109	4
110	1
111	55
112	12
113	1
125	4
126	285
127	29
128	2
