Mass Spectrum: Beta-alanyl-dl-norleucine
Formula: C9H18N2O3
CAS: 93219-98-8
Molecular weight: 202
m/z	intensity
12	2
13	2
14	14
15	33
16	23
17	41
18	7
24	1
25	6
26	53
27	181
28	233
29	117
30	999
31	16
32	4
34	1
36	2
37	8
38	17
39	99
40	53
41	228
42	127
43	630
44	405
45	116
46	8
47	1
49	2
50	9
51	18
52	28
53	66
54	50
55	152
56	121
57	54
58	10
59	11
60	26
61	2
62	3
63	5
64	3
65	9
66	10
67	35
68	37
69	73
70	116
71	19
72	100
73	30
74	41
75	13
76	3
77	6
78	6
79	10
80	20
81	26
82	15
83	16
84	52
85	51
86	806
87	62
88	32
89	7
90	12
91	5
92	8
93	8
94	12
95	10
96	32
97	27
98	23
99	85
100	27
101	7
102	20
103	6
104	3
105	2
106	7
107	4
108	5
109	7
110	14
111	12
112	23
113	22
114	12
115	63
116	23
117	49
118	6
119	3
120	4
121	7
122	3
123	5
124	5
125	3
126	3
127	28
128	51
129	14
130	47
131	17
132	436
133	30
134	3
135	1
136	1
137	2
138	2
139	7
140	25
141	5
142	3
143	2
144	9
145	8
146	38
147	3
148	2
149	2
151	1
153	3
154	4
155	30
156	8
157	40
158	19
159	22
160	6
166	1
167	4
168	2
169	1
172	1
173	70
174	14
175	1
183	1
184	7
185	4
186	3
202	31
203	4
