Mass Spectrum: 2,2,2-Trifluoro-N-[6-methoxy-8-quinolinyl]acetamide, 1'-oxide
Formula: C12H9F3N2O3
CAS: 93245-24-0
Molecular weight: 286
m/z	intensity
41	18
42	12
43	25
44	18
45	30
47	5
49	18
50	175
51	207
52	112
53	56
54	13
55	9
56	6
57	2
58	6
59	11
61	34
62	141
63	307
64	83
65	39
66	14
69	999
70	19
71	21
72	3
73	12
74	38
75	116
76	135
77	77
78	88
79	127
81	4
84	7
86	37
87	71
88	111
89	111
90	68
91	29
92	7
93	3
94	5
95	17
97	21
98	2
99	23
100	22
101	39
102	274
103	116
104	47
105	14
106	7
107	2
108	48
111	5
113	16
114	132
115	108
116	105
117	73
118	37
119	4
120	4
121	2
122	1
124	2
125	1
126	4
127	14
128	29
129	308
130	188
131	28
132	13
133	1
134	8
135	2
136	0
139	9
141	71
142	180
143	72
144	27
146	54
147	6
148	2
150	1
151	1
152	1
153	1
154	1
155	1
156	1
157	197
158	814
159	91
160	16
161	6
162	4
167	0
168	1
170	166
171	134
173	119
174	29
175	7
177	3
179	4
180	1
183	1
184	5
185	4
186	21
187	8
189	93
197	3
199	15
200	330
201	127
202	27
205	2
206	1
210	2
215	6
216	76
217	540
219	4
220	0
222	1
224	0
226	2
233	36
234	0
238	6
239	10
240	1
243	2
254	0
255	1
267	0
270	12
271	5
286	500
287	70
288	4
