Mass Spectrum: Pentan-3-one, 1-(1-perhydroazepinyl)-4,4-dimethyl-
Formula: C13H25NO
CAS: 93258-02-7
Molecular weight: 211
m/z	intensity
33	2
35	0
36	3
37	0
39	57
41	208
42	108
43	43
44	36
45	1
50	0
51	2
53	12
54	15
55	87
56	42
57	148
58	85
59	2
65	1
67	10
68	16
69	26
70	26
71	7
72	2
77	0
79	11
80	19
81	13
82	34
83	13
84	39
85	5
91	0
94	1
95	1
96	14
97	5
98	23
99	9
100	4
108	0
110	28
112	999
113	73
114	1
124	10
126	75
127	7
128	1
140	1
142	8
152	1
154	17
155	1
156	5
157	0
168	12
169	2
182	18
183	2
194	1
196	13
197	1
210	12
211	131
212	16
213	1
