Mass Spectrum: 2-t-Butyl-3-formyl-4-(1-hydroxy-1-methylethyl)oxazolidine-4-carboxylic acid, methyl ester
Formula: C13H23NO5
CAS: 93250-98-7
Molecular weight: 273
m/z	intensity
25	7
26	73
27	41
29	193
30	23
31	215
32	3
33	23
39	55
40	16
41	296
42	326
43	264
44	22
45	77
46	8
51	2
52	2
53	22
54	14
55	107
56	21
57	274
58	50
59	323
60	19
61	7
65	5
66	3
67	24
68	28
69	65
70	145
71	91
72	12
73	26
74	57
75	9
79	2
80	3
81	6
82	94
83	45
84	32
85	113
86	44
87	27
88	6
91	2
93	2
94	4
95	8
96	38
97	441
98	132
99	20
100	14
101	276
102	92
103	6
104	4
108	2
109	3
110	999
111	105
112	56
113	16
114	230
115	14
116	2
118	4
120	3
122	2
124	5
125	15
126	54
127	10
128	39
129	682
130	220
131	43
132	4
137	2
138	14
139	2
140	10
141	4
143	6
144	2
149	2
150	2
152	28
153	3
155	2
156	20
157	3
158	25
159	2
160	9
166	5
168	3
169	3
170	306
171	30
172	95
173	8
182	2
183	3
184	2
185	2
186	47
187	8
188	861
189	89
190	13
197	3
198	5
212	6
214	8
215	54
216	143
217	15
218	2
227	4
228	5
230	7
242	3
256	6
258	13
259	2
274	23
275	3
