Mass Spectrum: trans-1,2-Diethoxycyclohexane
Formula: C10H20O2
CAS: 93250-27-2
Molecular weight: 172
m/z	intensity
45	104
47	74
50	4
51	22
52	9
53	101
54	78
55	222
57	830
58	70
59	86
60	37
65	21
66	21
67	342
68	37
69	311
70	601
71	71
72	79
73	28
75	4
77	32
79	251
80	63
81	310
82	791
83	248
85	665
86	39
87	3
88	6
91	259
92	8
97	163
98	999
99	148
100	9
108	13
111	45
112	2
113	2
115	16
116	2
125	14
126	31
127	39
128	21
129	3
143	8
144	9
172	34
173	3
