Mass Spectrum: 4-Oxazolidinecarboxylic acid, 2-(1,1-dimethylethyl)-3-formyl-, methyl ester, (2R-cis)-
Formula: C10H17NO4
CAS: 93250-91-0
Molecular weight: 215
m/z	intensity
26	3
27	43
28	29
29	64
30	9
31	7
33	11
38	2
39	31
40	8
41	103
42	144
43	64
44	12
45	10
46	1
50	1
51	1
52	1
53	8
54	5
55	31
56	11
57	64
58	4
59	26
60	10
61	4
65	0
66	0
67	3
68	5
69	25
70	387
71	51
72	7
73	1
74	22
75	1
80	1
81	1
82	6
83	1
84	10
85	4
86	4
87	17
88	5
93	1
94	0
95	0
96	2
97	1
98	7
99	4
100	2
101	0
102	16
103	2
110	1
111	5
112	19
113	1
114	2
126	2
127	0
128	10
129	1
130	999
131	66
132	8
133	1
140	1
142	2
143	0
144	2
149	1
156	32
157	3
158	190
159	14
160	2
172	23
173	2
184	6
185	0
186	2
200	1
216	1
