Mass Spectrum: Biacetyl mono((3,4-dimethyl-5-isoxazolyl)hydrazone)
Formula: C9H13N3O2
CAS: 93263-58-2
Molecular weight: 195
m/z	intensity
14	5
15	93
16	1
25	1
26	29
27	131
28	71
29	11
30	26
31	2
37	3
38	8
39	61
40	27
41	89
42	489
43	999
44	60
45	6
50	4
51	9
52	21
53	69
54	98
55	59
56	25
57	99
58	9
59	1
64	2
65	2
66	30
67	16
68	438
69	68
70	33
71	36
72	2
76	1
79	1
80	35
81	81
82	16
83	20
84	61
85	21
86	6
93	7
94	4
95	14
96	100
97	21
98	70
99	9
100	4
101	1
107	1
108	2
109	14
110	24
111	122
112	220
113	18
114	2
115	1
121	1
122	2
123	1
124	5
125	5
126	5
127	1
134	1
135	2
136	3
137	1
138	3
139	2
141	1
149	4
150	3
151	9
152	696
153	76
154	21
155	2
156	1
166	1
177	1
178	1
180	3
191	2
192	1
193	4
194	4
195	755
196	114
197	11
198	1
