Mass Spectrum: 2,5-Bis(2-chloro-1,1-dimethylethyl)-1,3,4-oxadiazole
Formula: C10H16Cl2N2O
CAS: 93289-72-6
Molecular weight: 250
m/z	intensity
37	10
38	30
39	480
40	80
41	600
42	130
43	70
44	10
49	240
50	30
51	150
52	40
53	200
54	40
55	999
56	110
63	100
64	10
65	30
66	20
67	70
68	50
69	130
70	50
75	40
77	20
81	20
82	30
83	90
84	20
89	40
91	710
92	40
93	210
94	10
103	20
105	10
109	10
111	10
117	110
118	20
119	60
120	10
133	10
137	10
151	30
152	40
158	30
160	10
165	10
166	10
201	880
202	90
203	260
204	30
215	200
216	20
217	50
218	10
250	10
252	5
