Mass Spectrum: 2-Benzoyl-1,2,3,4-tetrahydro-isoquinoline-3-carboxylic acid
Formula: C17H15NO3
CAS: 93316-40-6
Molecular weight: 281
m/z	intensity
33	0
34	2
36	5
37	4
38	12
39	39
40	21
41	14
42	5
43	8
44	82
45	9
46	1
50	65
51	182
52	28
53	9
54	3
55	7
56	12
57	6
58	1
59	1
60	0
61	1
62	8
63	24
64	10
65	19
66	2
67	1
68	0
69	2
70	3
71	2
73	3
74	18
75	25
76	51
77	639
78	95
79	20
80	2
81	1
82	0
83	1
84	1
85	0
86	0
87	1
88	1
89	12
90	6
91	19
92	7
93	3
94	1
95	0
97	0
98	0
99	0
101	13
102	39
103	93
104	133
105	999
106	95
107	8
108	1
109	0
110	0
111	1
112	0
113	1
115	26
116	42
117	55
118	11
119	3
120	11
121	12
122	27
123	3
124	0
126	0
128	27
129	56
130	151
131	30
132	44
133	11
134	6
135	3
136	4
137	0
138	2
139	2
141	0
142	1
143	0
144	0
145	0
146	2
147	3
148	3
149	5
150	6
151	2
152	2
153	0
156	2
157	2
158	17
159	3
160	4
161	3
162	21
163	3
164	1
165	4
166	0
167	0
171	1
173	1
174	3
175	12
176	200
177	26
178	5
179	1
180	0
181	0
189	1
190	5
191	4
192	2
193	2
194	0
203	0
204	1
205	1
206	3
207	4
208	2
209	0
216	0
217	1
218	5
219	2
220	3
221	1
222	3
223	0
232	2
233	3
234	30
235	150
236	139
237	136
238	23
239	3
241	0
248	0
249	1
262	1
263	6
264	1
279	2
281	136
282	23
