Mass Spectrum: 4-Benzyloxy-2-butenal 2,4-dinitrophenylhydrazone
Formula: C17H16N4O5
CAS: 93318-02-6
Molecular weight: 356
m/z	intensity
16	1
26	3
27	18
28	40
29	6
30	16
31	1
37	2
38	7
39	31
40	5
41	16
42	2
43	4
44	7
49	1
50	12
51	32
52	14
53	21
54	9
55	9
56	3
57	3
61	2
62	8
63	21
64	12
65	44
66	8
67	14
68	12
69	10
70	2
71	2
73	1
74	7
75	13
76	10
77	72
78	23
79	71
80	9
81	5
82	15
83	9
84	4
85	4
87	2
88	3
89	15
90	18
91	999
92	105
93	8
94	2
95	2
96	1
97	2
101	3
102	4
103	7
104	5
105	33
106	30
107	58
108	64
109	6
111	1
113	3
114	5
115	8
116	7
117	8
118	6
119	3
120	2
121	2
122	5
123	1
127	3
128	7
129	20
130	9
131	8
132	3
133	2
134	2
135	2
136	2
137	3
138	8
139	1
140	5
141	9
142	6
143	7
144	6
145	9
146	5
147	2
148	1
149	5
150	1
152	4
153	6
154	2
155	8
156	12
157	11
158	7
159	9
160	2
161	1
163	4
164	15
165	6
166	3
167	11
168	22
169	10
170	8
171	3
172	4
173	3
174	5
175	3
176	2
177	2
178	2
179	1
180	2
181	3
182	1
183	25
184	18
185	5
186	2
187	1
188	2
189	9
190	6
191	10
192	2
193	5
194	1
195	2
197	4
198	2
199	1
200	1
201	4
202	11
203	33
204	11
205	5
206	3
210	3
211	2
213	1
214	43
215	22
216	9
217	3
218	10
219	8
220	7
221	1
222	1
224	1
230	5
231	11
232	9
233	9
234	2
235	6
236	1
237	18
238	7
239	1
247	9
248	26
249	9
250	9
251	1
263	3
264	2
265	96
266	11
267	4
278	1
281	1
283	1
292	1
293	3
294	2
310	4
313	1
321	2
322	1
324	1
326	1
327	9
328	1
338	1
354	1
356	38
357	9
358	1
