Mass Spectrum: Methyl 2-phenyl-2,3-epoxyindan-1-one-3-carboxylate
Formula: C17H12O4
CAS: 93328-01-9
Molecular weight: 280
m/z	intensity
76	10
77	220
78	30
88	10
89	10
104	30
105	999
106	70
115	10
139	10
152	10
163	30
164	30
165	110
166	10
176	10
193	40
194	40
203	10
209	70
210	10
221	30
222	10
237	70
249	30
252	50
279	20
280	400
281	74
282	6
