Mass Spectrum: 3-Bromopropanesulfonic acid, TMS derivative
Formula: C6H15BrO3SSi
CAS: 93369-96-1
Molecular weight: 274
m/z	intensity
27	4
31	11
37	5
38	8
39	98
40	13
41	705
42	35
43	45
44	2
45	119
46	15
47	48
54	4
59	54
60	12
61	30
62	6
63	1
71	2
72	28
73	129
74	62
75	999
76	66
77	10
85	6
86	1
87	1
88	3
89	0
90	0
93	29
94	2
95	13
97	2
99	8
100	2
101	2
102	0
103	0
105	6
106	1
107	2
109	5
111	1
113	1
115	193
116	21
119	7
120	9
121	72
122	12
123	66
124	1
125	3
126	1
127	1
136	0
137	171
138	24
139	735
140	48
141	45
142	2
143	1
152	27
153	221
154	18
155	20
158	1
165	5
166	5
167	9
168	6
169	5
170	0
179	36
180	4
185	2
187	1
188	1
194	1
195	36
196	1
197	2
201	58
202	3
203	58
204	2
217	0
233	2
234	1
235	1
259	287
260	33
261	302
262	45
263	33
274	50
275	7
276	52
277	4
278	3
