Mass Spectrum: (+)-trans-Alpha,alpha'-(2,2-dimethyl-1,3-dioxolane-4,5-diyl)bis(diphenylmethanol)
Formula: C31H30O4
CAS: 93379-49-8
Molecular weight: 466
m/z	intensity
15	2
27	2
28	12
29	2
31	1
32	2
38	1
39	6
41	6
42	2
43	30
44	1
50	5
51	25
52	2
53	1
55	5
57	3
58	9
59	43
60	5
62	1
63	4
64	1
65	6
69	2
71	2
73	2
74	2
75	3
76	11
77	182
78	16
79	6
81	1
82	3
83	3
85	39
86	2
87	2
88	2
89	8
90	4
91	29
92	2
94	1
95	1
97	1
99	1
100	27
101	14
102	12
103	10
104	4
105	999
106	78
107	11
108	1
111	1
113	1
115	11
116	1
118	2
119	6
120	1
121	1
126	2
127	2
128	3
129	1
130	4
131	12
132	2
133	1
135	1
139	4
141	2
147	3
149	2
150	2
151	7
152	31
153	9
154	4
155	1
157	1
163	4
164	5
165	55
166	20
167	98
168	16
169	2
171	2
176	7
177	8
178	65
179	136
180	43
181	28
182	66
183	488
184	71
185	6
189	3
190	2
191	12
192	7
193	10
194	9
195	10
196	13
197	111
198	16
199	1
202	2
203	2
204	1
205	5
206	2
207	344
208	221
209	45
210	6
215	1
217	1
219	2
220	1
221	5
222	1
223	3
224	3
225	125
226	23
227	2
236	10
237	75
238	13
239	2
241	3
246	4
247	1
248	3
250	1
251	1
252	2
253	1
255	1
263	1
265	9
266	11
267	10
268	3
269	8
270	2
278	3
279	1
283	1
285	1
294	1
295	1
297	2
313	3
314	1
343	1
344	8
345	3
354	1
355	1
356	1
358	2
359	1
372	13
373	6
374	1
430	1
