Mass Spectrum: (-)-trans-Alpha,alpha'-(2,2-dimethyl-1,3-dioxolane-4,5-diyl)bis(diphenylmethanol)
Formula: C31H30O4
CAS: 93379-48-7
Molecular weight: 466
m/z	intensity
15	1
27	1
28	9
29	1
31	2
32	1
39	2
41	4
42	3
43	16
44	1
50	2
51	10
52	1
55	4
57	2
58	3
59	63
60	6
63	1
65	2
69	1
71	2
73	2
75	1
76	4
77	116
78	12
79	4
85	43
86	2
89	2
90	2
91	20
92	2
99	1
100	45
101	20
102	8
103	6
104	3
105	999
106	77
107	9
115	3
118	2
119	5
120	1
128	1
130	2
131	8
133	1
139	1
147	2
149	2
151	2
152	10
153	4
154	2
164	1
165	14
166	5
167	32
168	5
176	2
177	4
178	32
179	104
180	30
181	12
182	30
183	545
184	82
185	7
191	2
193	2
194	1
195	5
196	6
197	123
198	18
199	1
205	1
206	1
207	391
208	256
209	40
210	4
219	1
221	1
223	1
224	1
225	154
226	29
227	3
236	2
237	86
238	15
239	1
241	4
258	1
259	2
265	1
266	2
267	3
373	1
