Mass Spectrum: (R)-(-)-3-Bromo-2-methyl-1-propanol
Formula: C4H9BrO
CAS: 93381-28-3
Molecular weight: 152
m/z	intensity
15	7
26	13
27	97
28	19
29	160
30	11
31	475
32	6
37	10
38	26
39	230
40	48
41	499
42	999
43	367
44	66
45	26
50	2
51	5
53	19
54	24
55	230
56	8
57	173
58	5
59	2
71	37
72	347
73	23
81	5
93	12
95	10
121	22
122	7
123	28
124	4
134	53
135	4
136	53
