Mass Spectrum: Acetamide, N-(2-oxo-5-hexenyl)-
Formula: C8H13NO2
CAS: 93393-92-1
Molecular weight: 155
m/z	intensity
26	21
27	147
28	75
29	136
30	999
31	56
37	4
38	13
39	171
40	20
41	105
42	84
43	578
44	21
45	60
50	15
51	23
52	14
53	57
54	39
55	749
56	47
57	12
58	20
59	17
60	34
67	10
68	7
69	9
70	4
71	4
72	393
73	873
74	55
75	3
77	3
79	5
81	9
82	10
83	149
84	13
85	16
86	6
94	3
95	15
96	165
97	22
98	7
99	47
100	46
110	4
111	8
112	18
113	108
114	69
115	4
126	3
127	15
137	10
140	16
155	37
156	39
157	3
