Mass Spectrum: Bicyclopentyl-1,1'-diene
Formula: C10H14
CAS: 934-02-1
Molecular weight: 134
m/z	intensity
26	34
27	242
29	58
30	4
31	4
37	19
38	60
39	494
40	87
41	351
42	37
43	22
44	13
45	8
48	4
49	9
50	90
51	230
52	97
53	139
54	28
55	85
56	15
57	11
58	28
59	6
61	16
62	51
63	134
64	52
65	239
66	310
67	362
68	42
69	31
70	11
71	14
72	2
73	5
74	30
75	32
76	21
77	320
78	230
79	245
80	97
81	25
82	12
83	11
84	29
85	9
86	10
87	12
88	4
89	40
90	20
91	999
92	389
93	750
94	77
95	35
96	7
97	6
98	15
99	2
100	3
101	6
102	18
103	68
104	50
105	372
106	510
107	57
108	10
109	12
110	13
111	7
112	3
113	4
114	4
115	50
116	23
117	68
118	12
119	245
120	29
121	4
128	16
129	13
130	6
131	23
132	38
133	134
134	615
135	91
136	9
