Mass Spectrum: 3,5-Dimethylpyrazole-1-carboxamide
Formula: C6H9N3O
CAS: 934-48-5
Molecular weight: 139
m/z	intensity
15	11
16	3
26	8
27	21
28	45
29	10
30	15
31	1
37	2
38	6
39	51
40	19
41	67
42	65
43	75
44	42
45	1
47	2
50	2
51	8
52	13
53	10
54	92
55	53
56	17
57	3
60	1
62	1
63	4
64	2
65	20
66	11
67	26
68	29
69	27
70	1
75	3
78	4
79	3
80	3
81	109
82	7
83	1
94	8
95	919
96	999
97	87
98	3
110	1
137	1
139	499
140	61
141	4
