Mass Spectrum: 3-Phenylbut-1-ene
Formula: C10H12
CAS: 934-10-1
Molecular weight: 132
m/z	intensity
26	11
27	73
28	5
29	17
30	0
37	2
38	11
39	112
40	7
41	11
42	0
43	1
44	4
49	1
50	44
51	104
52	28
53	31
54	17
55	9
56	1
57	5
58	10
61	3
62	13
63	46
64	26
65	72
66	4
67	1
69	0
73	1
74	12
75	17
76	19
77	105
78	71
79	46
80	3
81	1
84	1
85	0
86	4
87	5
88	3
89	38
90	7
91	228
92	22
93	2
98	2
99	0
101	3
102	23
103	67
104	28
105	76
106	7
107	1
113	3
114	3
115	401
116	99
117	999
118	107
119	5
120	0
126	3
127	11
128	21
129	30
130	5
131	166
132	250
133	29
134	1
