Mass Spectrum: p-Ethoxyphenyl (2-(phenylthio)ehtyl)carbamate
Formula: C17H19NO3S
CAS: 93407-56-8
Molecular weight: 317
m/z	intensity
14	1
15	9
25	1
26	17
27	63
28	20
29	27
30	1
37	4
38	13
39	83
40	9
41	8
42	27
43	6
44	3
45	303
46	11
47	13
49	2
50	32
51	94
52	20
53	54
54	34
55	35
56	12
57	5
58	8
59	8
60	2
61	5
62	10
63	28
64	12
65	95
66	28
67	4
68	2
69	35
70	15
71	6
73	2
74	10
75	8
76	7
77	91
78	17
79	58
80	6
81	115
82	70
83	7
84	9
85	1
89	3
90	2
91	22
92	4
93	9
94	3
95	7
96	1
97	5
100	1
103	2
104	2
105	1
106	1
107	2
108	19
109	201
110	999
111	70
112	9
119	1
121	12
122	4
123	920
124	78
125	42
126	3
134	1
135	9
136	3
137	15
138	715
139	64
140	5
150	1
179	612
180	68
181	31
182	3
317	8
318	1
