Mass Spectrum: Venlafaxine
Formula: C17H27NO2
CAS: 93413-69-5
Molecular weight: 277
m/z	intensity
15	2
27	5
28	3
29	9
30	10
31	2
39	7
40	1
41	19
42	26
43	14
44	12
45	9
46	1
50	1
51	4
52	1
53	6
54	1
55	23
56	4
57	12
58	999
59	36
63	2
64	1
65	11
66	2
67	2
68	1
69	3
70	2
71	1
72	1
74	2
75	1
76	1
77	15
78	6
79	9
80	1
81	17
82	2
83	1
89	4
90	3
91	35
92	4
93	2
94	3
95	1
97	1
98	1
99	5
102	2
103	6
104	3
105	5
106	1
107	2
108	2
109	3
115	5
116	2
117	3
118	3
119	31
120	8
121	27
122	3
127	1
128	3
129	2
130	1
131	4
132	4
133	6
134	194
135	23
136	2
137	4
141	1
143	1
144	2
145	2
146	4
147	5
148	8
149	1
158	1
159	3
160	2
161	1
162	8
163	7
164	1
171	1
173	1
174	1
175	1
176	1
177	2
178	9
179	28
180	4
202	4
203	1
