Mass Spectrum: 1,2,4,5-Tetrathiane, 3,6-diethyl-, trans-
Formula: C6H12S4
CAS: 934273-77-5
Molecular weight: 212
m/z	intensity
27	12
29	7
35	1
38	3
39	53
40	6
41	193
42	12
44	2
45	164
46	28
47	32
48	2
49	1
57	4
58	30
59	36
60	5
61	11
64	78
65	6
66	8
68	2
69	7
70	2
71	30
72	17
73	999
74	438
75	82
76	26
77	11
78	10
79	6
83	3
91	3
96	4
97	3
101	1
103	3
104	2
105	32
106	75
107	49
108	11
109	32
111	5
115	29
116	3
117	2
128	4
138	261
139	16
140	34
141	2
142	2
147	335
148	33
149	31
150	3
171	1
183	1
212	372
213	35
214	65
215	4
216	4
