Mass Spectrum: 3'-Methylazobenzene-2-carboxylic acid
Formula: C14H12N2O2
CAS: 93431-54-0
Molecular weight: 240
m/z	intensity
17	12
18	2
26	1
27	6
28	9
37	1
38	6
39	60
40	4
41	16
42	1
43	2
44	21
45	2
50	15
51	38
52	12
53	7
54	1
55	1
57	2
61	1
62	5
63	27
64	14
65	228
66	14
67	1
69	1
71	1
74	4
75	6
76	25
77	90
78	14
79	8
80	2
83	1
84	1
85	1
87	1
88	1
89	24
90	17
91	999
92	96
93	88
94	6
95	1
97	2
102	1
103	1
104	37
105	32
106	21
107	19
108	1
111	1
112	2
115	6
116	2
117	1
118	2
119	476
120	44
121	207
122	14
123	1
125	1
127	2
128	6
129	2
133	1
137	4
139	3
140	1
141	8
142	1
149	41
150	5
151	7
152	56
153	16
154	4
155	4
156	2
163	2
164	3
165	70
166	27
167	35
168	12
169	3
177	1
179	2
180	4
181	41
182	7
183	3
184	1
192	1
193	7
194	21
195	55
196	72
197	16
198	3
207	2
209	1
211	21
212	11
213	1
223	12
224	77
225	11
226	1
238	2
239	1
240	456
241	74
242	7
