Mass Spectrum: 2-(4-Methyl-phenylthio)-indan
Formula: C16H16S
CAS: 93435-72-4
Molecular weight: 240
m/z	intensity
39	104
43	43
45	61
63	61
65	79
77	70
79	44
89	60
91	358
115	664
116	999
117	150
118	131
123	62
124	392
125	43
240	691
241	123
242	43
