Mass Spectrum: 2'-Methylazobenzene-3-carboxylic acid
Formula: C14H12N2O2
CAS: 93431-52-8
Molecular weight: 240
m/z	intensity
17	12
18	2
26	1
27	6
28	12
37	1
38	4
39	49
40	3
41	13
43	1
44	5
45	4
50	16
51	29
52	8
53	4
55	1
57	2
62	4
63	19
64	11
65	240
66	14
67	1
69	1
71	1
73	1
74	4
75	12
76	44
77	18
78	8
79	4
83	2
88	1
89	20
90	11
91	999
92	92
93	19
94	2
96	1
97	2
99	1
100	1
102	2
103	9
104	73
105	10
106	13
107	9
108	1
111	1
115	3
118	5
119	268
120	23
121	223
122	18
123	2
127	1
128	12
129	2
130	4
137	4
139	2
140	1
141	3
149	27
150	3
151	3
152	18
153	4
154	1
155	1
163	1
164	2
165	28
166	12
167	16
168	4
178	1
179	3
180	1
181	1
192	3
193	5
194	9
195	14
196	5
197	1
211	3
212	2
221	4
222	2
223	6
224	2
238	1
239	54
240	780
241	125
242	12
243	1
