Mass Spectrum: Thiophene, 5-[(.beta.-carboxypropionamido)methyl]-
Formula: C9H11NO3S
CAS: 93447-84-8
Molecular weight: 213
m/z	intensity
41	42
42	31
43	70
44	60
45	490
46	28
47	24
48	2
49	2
50	16
51	33
52	28
53	132
54	29
55	201
56	50
57	80
58	56
59	18
60	14
61	5
62	6
63	15
64	7
65	6
66	6
67	19
68	24
69	51
70	37
71	26
72	11
73	85
74	15
75	2
76	3
77	14
78	24
79	5
80	39
81	15
82	21
83	27
84	62
85	210
86	16
87	12
88	2
89	2
91	4
92	0
93	5
94	2
95	21
96	60
97	628
98	47
99	34
100	9
101	73
102	3
105	2
106	19
107	5
108	4
109	12
110	151
111	155
112	999
113	261
114	62
115	14
116	2
120	2
121	2
122	6
123	29
124	28
125	14
126	11
127	4
128	9
129	3
130	18
132	1
133	1
134	51
135	7
136	7
137	10
138	51
139	17
140	5
141	2
143	1
148	1
149	3
150	4
151	1
152	9
153	3
154	32
155	7
156	4
160	0
163	1
165	2
166	462
167	265
168	47
169	19
170	2
172	3
178	2
179	0
180	0
181	6
182	6
183	2
185	1
186	2
187	0
195	108
196	15
197	5
200	1
205	1
213	435
214	55
215	27
216	2
