Mass Spectrum: Benzenesulfonamide, N-(4-ethenyltetrahydro-2-oxo-3-furanyl)-4-methyl-, trans-(.+-.)-
Formula: C13H15NO4S
CAS: 93455-29-9
Molecular weight: 281
m/z	intensity
25	5
26	52
28	112
29	30
30	17
31	3
37	2
38	10
39	154
40	16
41	96
42	13
43	40
44	7
45	6
48	3
50	18
51	40
52	18
53	45
54	624
55	102
56	8
57	7
62	11
63	53
64	18
65	276
66	59
67	38
68	66
69	11
70	45
71	38
72	3
74	3
75	4
76	4
77	23
78	10
79	14
80	118
81	17
82	112
83	10
87	2
88	2
89	59
90	37
91	999
92	174
93	13
96	3
97	2
98	52
99	16
105	3
106	4
107	26
108	24
109	3
111	7
115	3
116	2
117	2
118	7
119	3
121	3
122	2
123	3
124	4
125	6
126	674
127	46
128	6
129	2
130	2
131	3
132	3
139	33
140	6
141	4
155	262
156	27
157	18
158	3
159	2
172	26
173	8
174	2
184	0
210	0
216	2
222	1
223	21
224	3
236	95
237	13
238	5
281	92
282	14
283	6
