Mass Spectrum: 1,4-Dioxaspiro[4.5]decane, 7-methyl-
Formula: C9H16O2
CAS: 935-46-6
Molecular weight: 156
m/z	intensity
26	5
27	62
28	32
29	51
30	2
31	5
37	1
38	3
39	78
40	20
41	169
42	141
43	77
44	6
45	15
46	1
50	2
51	7
52	4
53	25
54	13
55	206
56	30
57	8
58	2
59	2
60	1
61	0
62	1
63	2
64	1
65	6
66	3
67	19
68	14
69	147
70	12
71	6
72	5
73	8
74	0
77	7
78	2
79	10
80	2
81	17
82	5
83	9
84	10
85	5
86	231
87	12
88	1
91	2
93	3
94	3
95	15
96	2
97	22
98	7
99	771
100	96
101	9
109	1
110	0
111	38
112	8
113	999
114	70
115	7
125	4
126	11
127	7
128	1
129	0
139	0
141	64
142	5
143	0
155	2
156	73
157	7
158	0
