Mass Spectrum: Cyclodecene, (Z)-
Formula: C10H18
CAS: 935-31-9
Molecular weight: 138
m/z	intensity
25	9
27	246
28	39
29	254
30	6
35	0
37	2
38	4
39	427
40	73
41	940
42	131
43	166
44	4
45	0
46	0
47	0
48	0
49	0
50	4
51	23
52	23
53	209
54	962
55	930
56	139
57	15
58	0
60	0
61	0
62	0
63	3
64	1
65	57
66	94
67	999
68	575
69	214
70	22
71	5
72	0
75	0
76	0
77	45
78	11
79	110
80	48
81	819
82	521
83	81
84	10
85	0
88	0
89	0
91	17
92	2
93	22
94	12
95	434
96	256
97	55
98	3
103	0
104	0
105	1
107	2
108	2
109	112
110	125
111	11
112	0
115	0
121	0
123	6
124	0
128	0
136	0
137	1
138	153
139	17
140	0
