Mass Spectrum: 1,3-Dioxolane, 2-ethyl-2-isobutyl-
Formula: C9H18O2
CAS: 935-45-5
Molecular weight: 158
m/z	intensity
41	215
42	66
43	342
45	48
48	76
55	121
56	20
57	876
58	20
99	106
101	999
102	80
103	34
113	80
114	14
129	733
130	90
