Mass Spectrum: 1,3-Dioxolane, 2-butyl-2-ethyl-
Formula: C9H18O2
CAS: 935-49-9
Molecular weight: 158
m/z	intensity
55	118
57	849
58	34
99	140
101	999
102	104
129	622
130	96
