Mass Spectrum: .beta.-d-Mannofuranoside, 1,2-3,4-di-O-isopropylidenegalactopyranosyl-2,3-5,6-bis-O-ethylboranediyl-
Formula: C22H36B2O11
CAS: 93524-14-2
Molecular weight: 498
m/z	intensity
24	1
26	5
27	46
28	24
29	65
30	2
31	47
38	1
39	35
40	10
41	119
42	37
43	713
44	20
45	24
47	1
51	4
52	2
53	29
54	12
55	72
56	26
57	121
58	37
59	295
60	15
61	6
62	0
65	4
66	3
67	10
68	28
69	171
70	46
71	150
72	10
73	30
74	2
75	1
76	1
78	1
79	4
80	4
81	310
82	39
83	84
84	35
85	208
86	20
87	15
88	1
89	2
91	0
93	2
94	2
95	15
96	14
97	75
98	128
99	364
100	319
101	50
102	5
103	3
104	1
105	1
107	2
108	3
109	86
110	247
111	999
112	85
113	165
114	21
115	10
116	1
117	4
118	0
119	1
120	0
121	2
122	3
123	13
124	45
125	53
126	27
127	157
128	17
129	55
130	4
131	3
133	1
135	3
136	8
137	24
138	10
139	33
140	100
141	364
142	28
143	20
144	3
145	10
148	1
149	23
150	5
151	5
152	6
153	20
154	18
155	23
156	9
157	13
158	2
159	1
163	3
164	8
165	19
166	5
167	16
168	5
169	15
170	3
171	28
172	2
173	15
174	0
177	1
178	1
179	8
180	18
181	39
182	11
183	13
184	10
185	85
186	10
187	9
188	1
189	0
193	1
194	2
195	6
196	6
197	3
198	3
199	6
200	1
201	11
202	1
203	10
204	2
205	1
206	1
207	3
208	18
209	62
210	80
211	12
212	1
213	6
215	3
218	0
219	1
220	5
221	11
222	1
223	1
224	2
225	5
226	1
227	3
228	1
229	9
230	1
231	63
232	8
233	1
234	0
236	2
237	14
238	56
239	89
240	17
241	22
242	4
243	9
244	2
245	16
246	2
253	2
254	4
255	2
257	5
259	2
261	0
265	0
266	1
267	0
271	1
273	4
279	3
280	1
282	2
283	9
284	2
285	3
287	0
289	58
290	8
291	2
292	1
295	1
297	3
298	4
299	11
300	3
301	1
302	2
307	0
311	1
312	4
313	1
323	1
328	0
329	0
337	0
338	1
340	7
341	29
342	5
352	1
353	1
354	1
355	3
356	1
364	0
366	1
369	1
370	5
371	1
372	0
379	0
380	2
381	1
382	1
384	0
394	1
395	0
398	3
399	16
400	3
410	2
411	5
412	1
422	1
423	1
424	4
425	9
426	2
440	0
468	1
469	1
481	8
482	57
483	134
484	29
485	5
486	0
498	1
