Mass Spectrum: .beta.-D-Mannofuranoside, methyl, cyclic 2,3:5,6-bis(ethylboronate)
Formula: C11H20B2O6
CAS: 93524-11-9
Molecular weight: 270
m/z	intensity
1	0
2	2
3	0
4	0
8	0
9	0
10	0
11	1
12	4
13	1
14	3
26	19
27	83
28	19
29	136
30	3
31	22
32	1
33	11
34	0
36	0
37	2
38	6
39	84
40	24
41	85
42	69
43	225
44	14
45	633
46	14
47	1
48	3
49	0
50	2
51	10
52	13
53	49
54	30
55	67
56	31
57	114
58	14
59	29
60	1
61	36
62	8
63	2
64	0
65	6
66	7
67	18
68	52
69	78
70	84
71	66
72	7
73	21
74	37
75	2
76	5
77	4
78	2
79	6
80	4
81	46
82	27
83	86
84	35
85	55
86	14
87	31
88	1
89	1
90	3
91	6
92	1
93	3
94	4
95	11
96	24
97	54
98	202
99	472
100	28
101	18
102	1
103	0
104	0
105	0
106	1
107	3
108	4
109	19
110	246
111	999
112	124
113	89
114	7
115	7
116	3
117	3
118	0
119	1
120	2
121	0
122	3
123	18
124	68
125	58
126	15
127	17
128	4
129	4
130	3
131	0
133	0
134	0
135	2
136	8
137	21
138	9
139	25
140	75
141	185
142	104
143	50
144	4
145	0
146	0
147	3
148	0
149	3
150	3
151	6
152	6
153	19
154	23
155	13
156	2
157	1
158	0
159	1
160	0
161	0
162	1
163	3
164	2
165	9
166	4
167	5
168	2
169	2
170	57
171	236
172	23
173	3
174	0
177	0
178	1
179	3
180	15
181	33
182	5
183	3
184	1
185	2
189	0
191	0
192	0
193	0
194	2
195	5
196	3
197	2
198	0
202	0
203	0
204	0
205	1
206	5
207	13
208	15
209	30
210	18
211	8
212	1
213	0
214	0
215	1
218	0
219	1
220	1
221	3
222	0
223	0
224	0
225	0
226	0
227	0
236	0
237	5
238	18
239	23
240	5
241	5
242	0
259	0
269	0
270	0
