Mass Spectrum: .beta.-d-Mannofuranoside, phenyl, tetraacetate
Formula: C20H24O10
CAS: 93524-22-2
Molecular weight: 424
m/z	intensity
26	2
27	23
28	9
29	14
30	1
31	2
32	0
37	0
38	2
39	40
40	6
41	37
42	8
43	999
44	20
45	4
47	0
49	0
50	5
51	15
52	8
53	17
54	6
55	15
56	3
57	4
58	3
59	1
60	2
61	6
62	2
63	7
64	1
65	15
66	8
67	41
68	14
69	15
70	5
71	6
72	0
73	17
74	1
75	1
76	0
77	29
78	8
79	98
80	16
81	56
82	9
83	4
84	5
85	55
86	11
87	44
88	2
89	1
90	0
91	25
92	3
93	36
94	80
95	9
96	1
97	17
98	8
99	15
100	1
101	2
102	4
103	22
104	0
105	4
106	1
107	38
108	6
109	116
110	10
111	4
112	5
113	4
114	1
115	16
116	1
117	0
119	1
121	13
122	1
123	0
124	0
125	4
126	7
127	102
128	9
129	2
130	2
131	3
132	0
133	1
134	0
135	2
136	21
137	2
138	0
139	9
140	3
141	7
142	3
143	2
144	2
145	12
146	1
147	1
148	0
149	2
150	0
151	3
152	6
153	2
154	3
155	6
156	22
157	7
158	10
159	2
160	6
161	1
162	0
163	0
164	0
165	1
166	0
167	2
168	7
169	167
170	16
171	3
172	0
173	0
174	0
175	1
176	7
177	10
178	59
179	10
180	2
181	9
182	11
183	5
184	4
185	5
186	6
187	6
188	7
189	1
190	2
191	0
192	0
194	1
195	2
196	10
197	3
198	98
199	11
200	38
201	6
202	6
203	1
204	1
207	0
208	0
209	0
210	1
211	4
212	1
213	4
214	5
215	5
216	9
217	1
218	4
219	0
220	0
221	0
228	0
229	10
230	1
231	0
235	1
236	26
237	5
238	10
239	2
240	2
241	0
242	1
243	5
244	4
245	6
246	10
247	0
248	5
249	0
250	0
251	0
252	1
253	0
254	0
255	0
256	0
257	0
258	0
259	0
260	0
261	0
262	0
263	0
264	0
265	1
266	0
267	1
268	0
269	0
270	0
271	2
272	1
273	2
274	4
275	0
276	2
277	5
278	3
279	2
280	0
281	0
282	0
287	0
288	0
289	3
290	0
291	0
292	0
295	0
296	2
297	0
298	1
299	6
300	6
301	8
302	15
303	1
304	8
305	0
306	0
307	0
308	0
309	0
310	0
311	0
312	0
313	0
314	0
315	0
316	0
317	0
318	0
319	0
320	0
321	0
324	0
325	0
326	0
327	1
328	0
329	2
330	1
331	107
332	20
333	4
334	1
335	1
336	0
337	1
338	1
339	0
340	0
341	0
342	0
343	0
344	0
345	0
346	0
347	0
348	0
349	0
350	1
351	1
352	1
353	0
354	0
355	0
356	4
357	1
358	1
359	0
360	0
361	0
362	0
363	0
364	0
365	0
366	0
367	0
368	0
369	0
370	0
371	0
372	0
373	0
374	0
375	0
376	1
377	0
378	0
379	0
380	0
381	0
382	0
383	0
384	0
385	0
407	0
408	0
409	0
419	0
420	0
421	0
422	0
423	0
424	0
425	0
