Mass Spectrum: 3'-Methylazobenzene-4-carboxylic acid
Formula: C14H12N2O2
CAS: 93533-07-4
Molecular weight: 240
m/z	intensity
17	9
18	1
27	5
28	11
37	1
38	3
39	47
40	3
41	14
43	2
44	3
45	3
50	17
51	29
52	7
53	4
55	2
57	3
61	1
62	4
63	21
64	9
65	261
66	14
67	1
69	1
71	2
74	4
75	16
76	35
77	13
78	5
79	3
81	1
83	1
85	1
88	1
89	20
90	11
91	999
92	90
93	23
94	1
95	1
97	2
102	1
103	9
104	69
105	9
106	7
107	5
108	1
109	1
111	1
115	3
116	1
119	327
120	29
121	355
122	28
123	2
125	1
127	1
128	2
129	1
137	3
139	2
141	3
149	58
150	6
151	4
152	30
153	6
154	1
155	1
163	1
164	2
165	27
166	11
167	18
168	3
169	1
181	1
183	1
193	1
194	1
195	7
196	2
197	1
211	3
212	2
223	7
224	3
238	2
240	701
241	114
242	13
243	1
