Mass Spectrum: 1-Tosyl-dl-baikiain amide
Formula: C13H16N2O3S
CAS: 93532-94-6
Molecular weight: 280
m/z	intensity
41	125
42	72
43	77
44	180
45	42
46	7
47	4
48	10
49	23
50	73
51	110
52	74
53	105
54	118
55	178
56	69
57	25
58	22
59	4
60	5
61	11
62	37
63	76
64	36
65	319
66	26
67	21
68	76
69	39
70	36
71	21
72	10
73	5
74	8
75	12
76	18
77	56
78	80
79	26
80	57
81	174
82	450
83	6
84	17
85	5
86	12
87	5
88	4
89	87
90	59
91	999
92	161
93	20
94	14
95	18
96	24
97	11
98	109
99	9
100	11
101	1
102	1
103	2
104	5
105	24
106	38
107	52
108	31
109	8
110	3
111	7
112	12
113	2
114	12
115	3
116	7
117	6
118	9
119	6
120	5
121	14
122	14
123	30
124	45
125	7
126	6
127	2
128	2
129	3
130	4
131	3
132	13
133	42
134	9
135	25
136	3
137	5
138	4
139	69
140	9
141	6
142	4
143	2
144	5
145	2
146	5
147	3
148	3
149	3
150	2
151	1
152	2
153	2
155	576
156	80
157	62
158	15
159	26
160	25
161	3
162	15
163	1
164	1
165	0
166	1
167	1
168	2
169	4
170	8
171	44
172	10
173	15
174	6
175	7
176	10
177	12
178	57
179	12
180	49
181	3
182	2
183	1
184	27
185	7
186	5
187	2
188	2
189	1
190	0
191	1
192	1
193	0
194	1
197	5
198	3
199	11
200	5
201	5
202	3
203	1
204	2
205	0
206	1
208	2
209	0
210	21
211	2
212	2
213	2
214	1
215	1
216	2
217	1
218	2
219	1
220	0
221	1
222	3
223	1
224	3
226	15
227	2
228	8
229	29
230	3
231	1
232	1
233	2
234	19
235	9
236	405
237	57
238	23
239	6
240	1
241	2
242	0
243	1
245	2
246	1
247	0
248	2
249	1
250	4
251	6
252	49
253	46
254	19
255	6
256	2
257	1
259	0
261	0
262	0
264	1
265	0
266	0
276	1
277	0
278	5
279	13
280	41
281	7
282	3
