Mass Spectrum: N,N'-Di(2,2,6,6-tetramethylpiperid-4-yl)aminoacetamide
Formula: C20H40N4O
CAS: 93547-60-5
Molecular weight: 352
m/z	intensity
39	17
40	13
41	113
42	140
43	48
44	30
53	9
54	15
55	91
56	62
57	111
58	542
59	19
67	27
68	14
69	34
70	32
71	25
72	9
77	9
79	11
81	23
82	44
83	33
84	39
85	25
91	10
93	7
94	9
95	12
96	24
98	210
99	34
100	9
101	8
107	32
108	17
109	10
110	30
111	13
112	44
113	14
122	13
124	999
125	85
126	14
135	8
138	38
139	26
140	112
141	34
149	26
153	17
155	394
156	36
157	8
161	15
167	22
169	256
170	24
183	35
198	59
214	39
295	10
352	9
