Mass Spectrum: 2-Thiophenecarboxylic acid, dodecyl ester
Formula: C17H28O2S
CAS: 93541-40-3
Molecular weight: 296
m/z	intensity
26	41
27	198
28	42
29	311
30	3
36	17
37	39
38	45
39	442
40	45
41	545
42	91
43	528
44	95
45	56
49	9
50	19
51	29
52	3
53	48
54	27
55	349
56	119
57	168
58	27
59	6
65	12
66	6
67	41
68	61
69	135
70	68
71	48
72	3
77	12
78	6
79	15
81	35
82	88
83	135
84	88
85	57
91	3
95	9
96	19
97	49
98	25
100	6
111	999
112	81
113	39
125	7
128	399
129	445
130	39
131	11
168	21
296	16
297	2
298	1
