Mass Spectrum: ((5-Isopropyl-2-methylcyclohexyl)sulfonylmethyl)benzene
Formula: C17H26O2S
CAS: 93542-25-7
Molecular weight: 294
m/z	intensity
27	21
28	3
29	29
38	1
39	33
40	6
41	128
42	7
43	103
44	4
45	2
48	2
49	1
50	3
51	9
52	4
53	23
54	12
55	306
56	16
57	282
58	12
62	1
63	9
64	7
65	66
66	7
67	65
68	44
69	391
70	23
71	48
72	2
76	1
77	19
78	4
79	20
80	7
81	133
82	36
83	999
84	72
85	5
89	11
90	7
91	579
92	65
93	14
94	17
95	186
96	36
97	190
98	14
105	9
106	4
107	3
108	1
109	13
110	4
111	2
119	2
121	6
122	3
123	42
124	5
125	3
133	1
136	2
137	17
138	169
139	629
140	69
141	4
157	13
158	1
173	1
203	1
214	1
229	1
230	5
231	1
295	6
296	1
