Mass Spectrum: Anobin
Formula: C15H20O5
CAS: 93552-70-6
Molecular weight: 280
m/z	intensity
40	32
41	332
42	22
43	999
44	119
45	90
46	16
51	44
52	28
53	321
54	30
55	225
56	19
57	47
58	7
59	6
63	9
65	95
66	40
67	163
68	33
69	110
70	16
71	71
72	9
73	10
74	119
77	181
78	50
79	254
80	82
81	239
82	49
83	35
84	16
85	128
86	21
87	64
89	6
91	365
92	74
93	262
94	72
95	177
96	64
97	62
98	17
99	9
103	49
104	26
105	234
106	74
107	180
108	98
109	114
110	80
111	87
112	20
113	15
115	47
116	40
117	159
118	32
119	146
120	64
121	138
122	196
123	169
124	99
125	41
126	6
127	7
128	32
129	83
130	43
131	280
132	122
133	196
134	101
135	108
136	91
137	90
138	24
139	16
141	23
142	34
143	64
144	31
145	202
146	42
147	152
148	97
149	150
150	103
151	60
152	74
153	31
154	17
155	11
156	10
157	98
158	41
159	132
160	85
161	219
162	161
163	87
164	28
165	87
166	75
167	49
169	7
170	7
171	25
172	27
173	106
174	60
175	178
176	192
177	191
178	96
179	287
180	48
181	6
182	8
183	17
184	5
185	60
186	28
187	30
188	57
189	67
190	116
191	84
192	30
193	17
194	14
199	21
200	48
201	78
202	67
203	209
204	84
205	97
206	23
207	13
208	5
213	41
214	5
216	11
217	48
218	105
219	101
220	42
221	160
222	43
228	104
229	21
231	77
232	8
246	293
247	62
248	8
249	7
264	106
265	14
