Mass Spectrum: 3,3-Dimethylcyclopropane-1,cis-2-dicarboxylic acid
Formula: C7H10O4
CAS: 936-87-8
Molecular weight: 158
m/z	intensity
14	2
15	9
16	4
17	45
18	239
19	2
22	1
25	2
26	22
27	108
28	91
29	43
30	1
31	22
32	6
33	3
37	9
38	23
39	190
40	78
41	273
42	65
43	187
44	131
45	58
46	6
47	6
48	1
49	4
50	25
51	43
52	23
53	147
54	25
55	92
56	27
57	20
58	5
59	152
60	9
61	5
62	5
63	9
64	2
65	54
66	49
67	437
68	74
69	78
70	12
71	46
72	28
73	17
74	3
75	1
76	3
77	13
78	34
79	10
80	4
81	91
82	38
83	20
84	22
85	20
86	3
87	2
88	2
89	1
91	2
92	1
93	3
94	73
95	444
96	173
97	72
98	8
99	82
100	162
101	9
102	1
105	1
106	2
107	1
108	1
110	1
111	52
112	165
113	999
114	96
115	9
116	1
117	11
118	1
122	74
123	7
124	1
125	2
126	1
127	13
128	3
129	1
131	1
135	1
140	54
141	44
142	4
143	2
149	1
154	1
155	1
159	9
160	1
