Mass Spectrum: N-Isopropylidene-hexadecano-hydrazide
Formula: C19H38N2O
CAS: 93612-49-8
Molecular weight: 310
m/z	intensity
41	181
42	53
43	289
44	24
55	170
56	142
57	209
58	29
59	36
60	9
67	23
68	11
69	59
70	24
71	94
72	999
73	99
74	17
97	28
98	29
99	33
114	260
115	24
127	52
128	9
141	17
239	28
295	76
296	18
310	45
