Mass Spectrum: 2-Pentanone, 5,5'-oxybis-
Formula: C10H18O3
CAS: 93677-66-8
Molecular weight: 186
m/z	intensity
26	30
27	109
28	76
29	70
30	6
31	63
37	10
38	25
39	155
40	7
41	149
42	207
43	999
44	17
45	11
49	4
50	14
51	28
52	11
53	53
54	78
55	64
56	39
57	30
58	196
59	23
61	18
65	1
68	19
69	55
71	4
72	6
81	9
82	4
83	146
84	311
85	348
86	22
87	10
101	0
