Mass Spectrum: Butanoic acid, 4-[(tetrahydro-2H-pyran-2-yl)oxy]-, methyl ester
Formula: C10H18O4
CAS: 93691-87-3
Molecular weight: 202
m/z	intensity
25	0
26	23
27	137
28	35
29	220
30	9
31	124
33	7
35	0
36	0
37	3
38	7
39	92
40	20
41	364
42	86
43	201
44	18
45	38
46	0
47	2
48	1
49	2
50	5
51	5
52	2
53	21
54	33
55	166
56	107
57	124
58	12
59	533
60	18
61	6
62	0
63	1
64	0
65	2
66	2
67	78
68	8
69	66
70	7
71	11
72	1
73	2
74	57
75	2
76	0
77	0
81	1
82	1
83	32
84	91
85	781
86	47
87	49
88	28
89	1
97	0
98	0
99	2
100	7
101	999
102	52
103	5
111	0
115	2
116	0
117	37
118	4
119	7
128	0
129	0
130	1
140	0
143	0
144	1
