Mass Spectrum: 2-Propenoic acid, phenyl ester
Formula: C9H8O2
CAS: 937-41-7
Molecular weight: 148
m/z	intensity
27	53
37	5
38	18
39	62
40	7
50	14
51	27
53	4
55	999
56	44
62	10
63	27
64	10
65	64
66	29
74	1
77	30
93	8
94	114
95	6
120	6
148	195
149	19
