Mass Spectrum: 3-Acetonylcyclohexanone
Formula: C9H14O2
CAS: 937-45-1
Molecular weight: 154
m/z	intensity
26	14
27	106
28	131
29	54
30	1
31	5
32	61
36	2
37	3
38	9
39	141
40	35
41	232
42	66
43	999
44	24
45	8
50	7
51	15
52	7
53	41
54	49
55	191
56	15
57	11
58	181
59	15
60	5
61	1
62	1
63	5
64	2
65	11
66	9
67	61
68	85
69	69
70	22
71	19
72	2
73	1
77	14
78	4
79	56
80	7
81	44
82	23
83	170
84	43
85	11
91	8
92	6
93	27
94	25
95	47
96	321
97	441
98	36
99	11
100	1
105	2
106	0
107	5
108	11
109	19
110	14
111	93
112	15
113	3
118	1
119	1
120	2
121	9
122	3
123	1
124	1
125	2
126	4
127	1
134	2
135	4
136	23
137	6
139	27
140	2
149	4
150	1
152	4
153	4
154	68
155	7
