Mass Spectrum: Benzene, (propoxymethyl)-
Formula: C10H14O
CAS: 937-61-1
Molecular weight: 150
m/z	intensity
41	30
43	50
50	10
51	30
64	10
66	100
77	40
78	10
79	80
89	10
90	10
91	999
92	480
93	20
105	10
107	70
108	40
150	10
