Mass Spectrum: 1-(Alpha-acetamidotoluene-p-sulfonyl)-3-p-tolylurea
Formula: C17H19N3O4S
CAS: 93730-74-6
Molecular weight: 361
m/z	intensity
14	1
15	9
16	2
26	12
27	38
28	61
29	8
30	59
31	20
34	1
36	1
37	9
38	21
39	71
40	15
41	25
42	16
43	286
44	83
45	17
46	7
48	4
49	6
50	64
51	115
52	95
53	51
54	16
55	3
56	2
57	2
58	1
60	1
61	8
62	19
63	60
64	30
65	48
66	26
67	8
68	1
69	2
71	2
72	4
73	3
74	12
75	18
76	44
77	246
78	164
79	121
80	21
81	4
82	1
83	1
84	1
85	2
86	3
87	4
88	4
89	110
90	55
91	116
92	13
93	6
94	5
95	4
97	1
99	1
100	1
102	12
103	20
104	330
105	418
106	999
107	572
108	46
109	7
110	1
111	1
116	1
117	2
118	2
119	5
120	4
121	9
122	9
123	2
124	1
125	3
127	1
128	1
129	2
130	3
131	6
132	452
133	875
134	80
135	7
136	2
137	2
138	3
140	1
141	11
142	1
146	2
147	187
148	45
149	6
152	12
153	7
154	6
155	1
158	3
164	6
165	1
168	6
169	5
170	119
171	10
172	7
181	3
183	1
184	5
185	39
186	6
187	2
195	2
196	15
197	3
198	1
209	1
210	1
211	92
212	131
213	17
214	7
223	1
227	1
228	109
229	14
230	6
239	1
240	6
253	5
254	195
255	27
256	11
257	1
