Mass Spectrum: Undec-10-enoic acid, t-butyl ester
Formula: C15H28O2
CAS: 93757-41-6
Molecular weight: 240
m/z	intensity
26	2
27	40
28	20
29	135
30	3
31	5
38	1
39	52
40	11
41	252
42	48
43	63
44	3
45	5
50	1
51	3
52	2
53	19
54	33
55	180
56	191
57	999
58	60
59	18
60	23
61	3
65	3
66	2
67	80
68	30
69	100
70	23
71	17
72	1
73	19
74	3
77	3
79	10
80	6
81	57
82	40
83	101
84	57
85	25
86	3
87	11
88	3
91	3
92	1
93	14
94	8
95	21
96	40
97	57
98	45
99	12
100	13
101	17
102	5
103	1
105	3
106	1
107	13
108	4
109	9
110	15
111	17
112	9
113	5
114	18
115	8
116	4
119	5
120	1
121	5
122	22
123	20
124	37
125	25
126	3
127	8
128	3
129	4
130	1
132	1
133	4
134	1
135	1
136	1
137	12
138	7
139	2
140	1
141	6
142	5
143	3
147	4
148	23
149	85
150	12
151	3
152	1
153	2
154	1
155	3
164	1
165	5
166	53
167	71
168	9
169	2
179	1
180	1
182	5
183	2
184	22
185	16
186	3
197	1
198	1
207	1
212	3
213	0
222	4
223	1
225	2
226	0
240	2
241	0
