Mass Spectrum: Propanoic acid, 3-(methylthio)-, pentyl ester
Formula: C9H18O2S
CAS: 93762-35-7
Molecular weight: 190
m/z	intensity
25	8
26	24
27	530
28	53
29	441
30	6
31	18
32	11
34	4
35	47
39	153
40	32
41	608
42	179
43	845
44	31
45	137
46	97
47	231
48	65
49	72
50	4
51	13
52	7
53	28
54	8
55	304
56	46
57	15
58	28
59	70
60	51
61	999
62	30
63	51
65	2
66	4
67	24
68	8
69	47
70	81
71	178
72	7
73	142
74	996
75	580
76	74
77	164
78	10
79	20
81	9
82	1
83	4
85	2
86	4
87	53
88	13
89	63
90	3
91	16
92	2
93	6
97	3
99	2
100	6
101	3
102	78
103	268
104	20
105	73
107	3
109	5
110	11
113	4
115	2
116	5
117	2
118	4
119	206
120	719
121	79
122	37
123	2
156	4
190	262
191	30
192	8
