Mass Spectrum: cis-3-Butyl-4-vinyl-cyclopentene
Formula: C11H18
CAS: 93779-52-3
Molecular weight: 150
m/z	intensity
37	1
38	9
39	246
40	36
41	351
42	19
43	48
44	1
45	0
46	0
49	0
50	14
51	67
52	34
53	106
54	72
55	112
56	5
57	19
58	1
59	0
60	0
61	0
62	3
63	22
64	5
65	146
66	276
67	293
68	32
69	9
70	0
71	0
74	1
75	1
76	1
77	515
78	228
79	999
80	584
81	101
82	15
83	4
84	0
85	0
86	0
87	0
89	4
90	0
91	510
92	86
93	712
94	284
95	59
96	21
97	0
101	0
102	0
103	8
104	1
105	31
106	5
107	99
108	82
109	31
110	1
115	2
116	0
117	1
118	0
119	0
120	0
121	82
122	44
123	2
124	0
127	0
128	0
135	15
136	1
148	0
149	1
150	57
151	5
152	0
