Mass Spectrum: 2,6,10-Dodecatrien-1-ol, 12-acetoxy-2,6,10-trimethyl-, (E,E,E)-
Formula: C17H28O3
CAS: 93787-91-8
Molecular weight: 280
m/z	intensity
27	26
28	1
29	84
30	2
31	10
39	33
40	14
41	213
42	15
43	999
44	23
45	8
51	3
52	2
53	52
54	8
55	131
56	17
57	58
58	6
59	11
60	3
61	4
65	18
66	7
67	154
68	314
69	259
70	23
71	30
72	3
73	33
74	1
75	1
77	32
78	7
79	102
80	104
81	186
82	49
83	44
84	123
85	86
86	8
87	3
91	56
92	44
93	341
94	138
95	228
96	31
97	29
98	12
99	4
101	1
103	3
104	1
105	59
106	25
107	176
108	39
109	80
110	16
111	14
112	2
113	3
115	2
117	8
118	4
119	85
120	32
121	107
122	57
123	65
124	16
125	13
126	16
127	22
128	3
129	1
130	1
131	13
132	13
133	51
134	108
135	121
136	28
137	41
138	35
139	45
140	16
141	3
143	2
144	2
145	21
146	15
147	42
148	15
149	14
150	10
151	29
152	77
153	12
154	1
157	1
159	24
160	10
161	32
162	21
163	21
164	7
165	4
166	2
167	1
168	1
173	7
174	4
175	6
176	2
177	8
178	3
179	2
180	1
187	31
188	4
189	31
190	8
191	7
192	3
193	1
195	3
201	2
202	36
203	9
204	1
205	16
206	2
207	2
211	1
218	1
219	4
220	35
221	6
222	2
223	1
238	1
249	2
250	1
262	8
263	1
280	6
281	1
