Mass Spectrum: (R,R)-Bisleucyldiaza-18-crown-6
Formula: C24H48N4O6
CAS: 93788-00-2
Molecular weight: 488
m/z	intensity
53	13
55	33
56	156
57	74
58	76
67	17
68	15
69	70
70	166
71	56
72	52
73	17
74	64
81	13
82	13
83	11
84	54
85	43
86	999
87	101
88	50
89	13
90	13
91	17
96	21
97	52
98	62
99	27
100	294
101	43
102	43
106	21
109	13
110	21
111	13
112	50
113	31
114	159
115	45
116	41
118	43
124	17
125	11
126	11
127	17
128	86
129	31
130	60
131	47
132	274
133	31
134	15
139	11
140	15
141	23
142	35
143	21
144	37
145	23
146	27
148	13
150	11
154	23
155	19
156	29
157	15
158	50
159	17
160	58
161	23
167	13
168	15
169	9
170	17
171	15
172	27
173	78
174	31
175	48
176	33
181	13
182	19
183	119
184	13
185	15
186	25
187	70
188	21
189	25
190	23
191	9
192	17
194	141
195	23
198	11
199	13
200	50
201	47
202	37
203	64
204	23
205	17
210	9
213	17
215	48
216	29
217	29
218	23
219	33
222	19
227	17
228	11
229	54
230	29
231	58
232	21
233	47
243	21
244	37
245	66
246	21
247	37
248	13
257	11
258	11
259	54
260	19
261	64
262	21
263	180
264	29
265	11
271	17
272	19
273	35
274	21
275	21
285	13
286	9
287	27
288	25
289	70
290	39
291	72
292	15
299	23
300	21
301	23
302	13
305	33
307	411
308	70
309	21
312	11
313	17
314	13
315	13
317	54
318	56
319	41
320	13
329	19
330	15
331	19
332	23
333	19
344	11
345	15
346	13
347	19
357	17
358	25
359	23
360	15
361	13
373	29
374	23
375	43
376	33
377	17
386	23
387	13
388	9
402	13
403	23
404	13
414	39
415	13
471	13
472	9
488	9
489	5
