Mass Spectrum: 1,3-Oxazine-4(4H)-one, 2-[(1,3-dithiolan-2-ylidene)]amino-6-(4-tolyl)-
Formula: C14H12N2O2S2
CAS: 93795-59-6
Molecular weight: 304
m/z	intensity
33	1
34	2
37	1
38	4
39	57
41	27
42	2
43	5
45	70
46	19
47	3
48	1
50	12
51	51
52	8
53	7
54	1
55	1
56	3
59	108
60	71
61	19
63	91
65	212
66	8
69	83
70	85
71	4
72	2
74	11
75	30
77	53
78	12
79	2
80	3
82	0
85	110
87	9
89	79
91	539
92	74
94	8
98	1
102	11
103	26
104	6
105	4
110	15
112	3
115	105
116	53
117	16
119	999
120	65
123	18
124	29
125	1
128	1
130	20
131	9
132	2
134	2
135	2
136	0
138	18
143	32
145	184
146	15
147	18
148	4
149	1
158	3
160	143
161	20
162	2
163	1
173	4
174	5
184	3
185	1
186	1
187	1
188	0
192	3
193	0
202	1
203	2
207	0
208	1
216	1
218	10
219	1
220	0
234	8
235	1
244	1
248	23
249	2
250	2
273	3
276	501
277	69
278	49
279	6
280	1
304	54
305	10
306	6
307	0
