Mass Spectrum: Indan-1,2,3-trione
Formula: C9H4O3
CAS: 938-24-9
Molecular weight: 160
m/z	intensity
23	2
24	2
25	8
26	21
27	7
28	87
29	7
36	12
37	139
38	173
39	19
41	1
43	5
44	2
48	9
49	77
50	553
51	31
52	66
53	18
56	1
57	5
60	7
61	32
62	15
66	18
72	4
73	40
74	155
75	105
76	999
77	86
82	2
84	6
85	2
86	7
87	3
88	2
103	3
104	984
105	85
106	5
132	282
133	28
134	2
160	71
161	6
