Mass Spectrum: Benzene, [(2-chloroethyl)sulfonyl]-
Formula: C8H9ClO2S
CAS: 938-09-0
Molecular weight: 204
m/z	intensity
15	1
25	1
26	14
27	131
28	17
29	4
31	7
32	2
34	1
35	3
36	31
37	3
38	13
39	29
40	2
41	1
43	2
44	6
45	10
46	1
47	2
48	4
49	5
50	87
51	302
52	20
53	9
57	2
58	3
59	2
60	1
61	5
62	6
63	161
64	8
65	88
66	10
69	8
70	1
71	1
73	4
74	26
75	27
76	27
77	999
78	191
79	12
81	7
82	2
83	2
84	1
89	1
91	41
92	4
93	30
94	55
95	5
97	40
98	3
99	3
102	1
103	7
104	12
105	4
107	2
108	2
109	8
110	4
111	2
112	9
113	2
114	3
119	6
120	22
121	3
123	2
125	377
126	32
127	19
128	1
139	1
140	7
141	626
142	169
143	40
144	8
155	3
156	38
157	3
158	11
159	1
168	52
169	5
170	3
174	3
176	76
177	6
178	27
179	2
180	2
204	147
205	14
206	52
207	5
208	2
