Mass Spectrum: Benzenesulfonyl azide
Formula: C6H5N3O2S
CAS: 938-10-3
Molecular weight: 183
m/z	intensity
48	30
50	110
51	330
52	20
53	110
63	20
64	90
65	30
66	20
74	40
75	30
76	40
77	999
78	100
83	20
93	50
141	500
142	40
143	30
183	90
