Mass Spectrum: Dimethyloctylmethoxysilane
Formula: C11H26OSi
CAS: 93804-29-6
Molecular weight: 202
m/z	intensity
26	1
27	30
29	39
30	0
31	8
33	0
38	0
39	13
40	1
41	41
42	13
43	22
45	23
46	1
47	2
51	0
52	0
53	2
54	1
55	6
56	5
58	23
59	144
60	11
61	11
62	0
65	0
67	0
68	0
69	0
70	0
71	3
72	1
73	1
74	7
75	204
76	15
77	5
81	0
83	1
84	0
85	3
86	0
87	2
89	999
90	77
91	37
92	1
93	0
95	0
97	4
98	0
99	10
100	1
101	10
102	2
103	3
104	0
105	2
109	0
111	2
112	0
113	7
114	1
115	20
116	2
117	3
118	0
125	0
127	3
128	0
129	6
130	0
131	1
141	0
142	0
143	3
144	0
145	1
153	0
155	31
156	4
157	2
158	0
159	0
170	0
171	1
185	0
187	287
188	43
189	12
190	1
202	26
203	5
204	1
