Mass Spectrum: Lauric acid, 2-methylbutyl ester
Formula: C17H34O2
CAS: 93815-53-3
Molecular weight: 270
m/z	intensity
25	0
26	5
27	108
28	41
29	316
30	9
31	18
33	0
36	0
37	0
38	2
39	64
40	15
41	370
42	155
43	718
44	31
45	28
46	0
47	0
48	0
49	0
50	1
51	2
52	1
53	21
54	24
55	325
56	76
57	301
58	19
59	9
60	170
61	51
62	2
63	1
65	2
66	2
67	31
68	18
69	85
70	999
71	598
72	47
73	113
74	21
75	2
76	0
77	1
78	0
79	5
80	3
81	30
82	14
83	80
84	43
85	89
86	8
87	45
88	6
89	3
90	0
91	1
92	0
93	4
94	2
95	41
96	11
97	53
98	44
99	17
100	6
101	29
102	6
103	2
104	0
105	0
106	0
107	3
108	1
109	23
110	5
111	15
112	10
113	5
114	2
115	41
116	3
117	1
118	0
119	0
120	0
121	3
122	0
123	7
124	1
125	5
126	1
127	1
129	42
130	26
131	12
132	1
133	0
135	1
136	1
137	1
138	5
139	3
140	5
141	1
143	15
144	2
145	0
149	0
151	0
153	1
154	0
155	0
157	27
158	2
159	0
162	0
163	3
164	1
165	1
167	0
169	0
171	10
172	1
173	0
180	0
181	2
183	192
184	26
185	2
200	81
201	47
202	5
203	0
207	0
240	1
241	1
242	0
255	0
270	2
271	0
