Mass Spectrum: trans-.beta.-Terpinyl benzoate
Formula: C17H22O2
CAS: 93836-54-5
Molecular weight: 258
m/z	intensity
18	101
19	0
20	0
24	0
25	0
26	7
27	99
28	21
29	113
30	2
31	8
32	4
33	0
34	0
35	0
36	0
37	4
38	12
39	154
40	47
41	313
42	34
43	181
44	7
45	12
46	1
47	1
48	0
49	2
50	59
51	186
52	28
53	135
54	19
55	195
56	14
57	20
58	8
59	2
60	2
61	4
62	3
63	10
64	3
65	55
66	31
67	242
68	572
69	123
70	8
71	8
72	1
73	17
74	14
75	12
76	31
77	640
78	68
79	220
80	151
81	359
82	47
83	12
84	4
85	3
86	0
87	1
88	0
89	3
90	1
91	104
92	324
93	841
94	441
95	243
96	17
97	3
98	2
99	0
100	0
101	0
102	2
103	6
104	8
105	999
106	86
107	347
108	115
109	17
110	2
111	1
112	0
113	1
114	0
115	4
116	2
117	5
118	2
119	13
120	16
121	385
122	74
123	33
124	4
125	1
126	1
127	1
128	2
129	2
130	1
131	2
132	3
133	7
134	3
135	10
136	653
137	96
138	8
139	1
140	0
141	2
142	0
143	1
144	0
145	4
146	0
147	1
148	0
149	4
150	1
151	0
152	2
153	3
154	2
155	1
156	0
157	0
158	0
159	1
160	0
161	0
162	0
163	0
164	0
165	0
166	0
167	1
168	0
169	0
170	0
171	0
172	0
173	1
174	0
175	1
176	0
177	0
178	1
179	0
180	0
181	0
182	1
183	0
184	0
185	0
186	0
187	1
188	1
189	0
190	0
191	0
192	0
194	0
195	0
196	0
197	1
199	0
200	0
201	1
202	1
203	0
204	1
205	0
206	0
207	1
208	0
210	0
211	0
215	0
219	0
220	0
221	0
222	0
223	0
224	0
225	0
226	0
228	0
229	0
230	0
231	0
236	0
237	0
238	0
239	0
240	0
242	0
243	0
244	0
245	0
250	0
251	0
256	0
257	0
258	0
