Mass Spectrum: .delta.-Terpineol, acetate
Formula: C12H20O2
CAS: 93836-50-1
Molecular weight: 196
m/z	intensity
27	27
29	24
31	8
38	3
39	94
40	21
41	175
42	19
43	999
44	22
45	11
50	4
51	18
52	12
53	75
54	20
55	76
56	7
57	16
58	8
59	329
60	12
61	6
63	5
64	2
65	37
66	16
67	125
68	40
69	100
70	7
71	73
72	6
77	83
78	20
79	168
80	166
81	140
82	16
83	5
84	4
91	85
92	86
93	774
94	134
95	162
96	17
97	5
101	168
102	11
103	4
105	25
106	5
107	50
108	24
109	10
110	5
111	5
117	3
119	5
120	6
121	135
122	13
123	40
124	4
136	455
137	94
138	27
139	31
140	3
163	3
181	8
182	1
