Mass Spectrum: trans-.beta.-Terpinyl pentanoate
Formula: C15H26O2
CAS: 93836-53-4
Molecular weight: 238
m/z	intensity
18	11
19	1
20	0
21	0
22	0
23	0
24	0
25	1
26	29
27	426
28	171
29	737
30	20
31	21
32	0
33	0
34	0
35	1
36	0
37	6
38	12
39	407
40	103
41	999
42	116
43	440
44	11
45	40
46	2
47	2
48	2
49	1
50	11
51	40
52	31
53	268
54	61
55	463
56	55
57	617
58	44
59	26
60	131
61	8
62	3
63	10
64	4
65	73
66	49
67	425
68	560
69	176
70	13
71	31
72	4
73	43
74	6
75	13
76	4
77	138
78	38
79	295
80	175
81	632
82	68
83	31
84	9
85	416
86	21
87	5
88	0
89	3
90	2
91	126
92	367
93	908
94	508
95	366
96	31
97	9
98	1
99	2
100	0
101	3
102	3
103	29
104	6
105	50
106	26
107	406
108	166
109	40
110	17
111	9
112	1
113	2
114	2
115	6
116	3
117	5
118	1
119	21
120	13
121	425
122	45
123	11
124	1
125	3
126	1
127	1
128	1
129	1
130	0
131	1
132	2
133	0
134	11
135	18
136	467
137	205
138	18
139	11
140	1
141	0
142	0
143	1
144	0
145	0
146	0
147	0
148	1
149	13
150	11
151	3
152	8
153	5
154	2
155	0
156	1
157	3
158	1
159	0
160	0
161	0
162	0
163	2
164	0
165	0
166	0
167	1
168	0
169	0
170	0
172	0
173	0
175	0
176	0
177	0
178	0
179	0
181	0
183	0
184	0
187	0
188	0
190	0
191	0
192	0
193	0
195	0
196	0
197	0
198	0
199	0
200	0
201	0
202	0
203	0
204	0
205	1
206	0
207	0
210	0
211	0
215	0
216	0
220	0
221	0
222	0
223	4
224	0
