Mass Spectrum: cis-1,1-Diethoxyhex-4-en-2-yne
Formula: C10H16O2
CAS: 93847-15-5
Molecular weight: 168
m/z	intensity
20	2
21	4
25	4
26	17
27	166
29	363
30	8
31	31
33	0
36	10
37	17
38	31
39	283
40	79
41	399
42	26
43	49
44	1
45	20
46	8
47	45
48	2
49	5
50	31
51	67
52	39
53	59
54	5
55	155
56	5
57	3
59	8
60	2
61	5
62	13
63	32
64	8
65	169
66	87
67	128
68	16
69	7
70	1
73	4
74	3
75	20
76	1
77	58
78	24
79	27
80	27
81	29
82	15
83	65
84	6
85	1
90	2
91	1
92	2
93	57
94	30
95	999
96	83
97	23
99	2
103	5
107	6
108	2
109	11
110	4
111	73
112	11
113	1
122	5
123	724
124	81
125	17
126	1
131	0
139	254
140	23
151	7
152	1
153	1
167	2
168	2
