Mass Spectrum: 2-[(2-Ethoxyphenoxy)(phenyl)methyl]morpholine
Formula: C19H23NO3
CAS: 93851-86-6
Molecular weight: 313
m/z	intensity
15	2
26	4
27	23
28	56
29	76
30	41
31	2
34	1
37	1
38	3
39	29
40	4
41	18
42	42
43	32
44	39
45	8
49	1
50	10
51	39
52	45
53	32
54	15
55	21
56	999
57	125
58	36
59	1
60	1
61	1
62	5
63	27
64	23
65	78
66	7
67	4
68	13
69	2
70	7
71	1
72	39
73	3
74	5
75	4
76	6
77	97
78	16
79	19
80	15
81	88
82	10
83	2
84	37
85	142
86	169
87	10
88	3
89	24
90	18
91	548
92	56
93	10
94	5
95	3
96	1
97	1
98	23
99	2
101	2
102	15
103	61
104	198
105	61
106	6
107	2
109	87
110	168
111	12
112	1
113	1
114	2
115	101
116	31
117	95
118	30
119	11
120	12
121	34
122	5
123	3
127	4
128	7
129	12
130	12
131	30
132	26
133	20
134	3
135	4
136	2
137	5
138	88
139	10
140	2
141	4
142	3
143	5
144	40
145	31
146	24
147	7
148	4
149	2
150	1
151	3
152	8
153	4
154	1
155	2
156	1
158	11
159	2
160	4
161	1
162	1
163	1
164	1
165	5
166	1
167	1
168	1
169	1
171	1
172	2
173	6
174	140
175	753
176	506
177	60
178	5
179	1
181	3
182	1
183	3
184	1
190	1
196	1
197	8
198	1
199	1
211	2
227	3
228	1
271	1
311	1
313	7
314	2
