Mass Spectrum: Butanamide, 3-benzoylhydrazono-N-(4-methoxyphenyl)-
Formula: C18H19N3O3
CAS: 93871-28-4
Molecular weight: 325
m/z	intensity
33	0
34	1
37	3
38	6
39	36
40	35
41	47
42	21
43	46
44	18
45	2
50	14
51	69
52	28
53	17
54	12
55	16
56	6
57	10
58	1
61	1
63	13
64	14
65	19
66	5
67	6
68	2
69	7
70	4
71	13
72	0
73	63
74	6
75	5
77	409
78	33
79	13
80	45
81	5
82	1
83	3
84	2
85	5
90	5
91	7
92	22
93	9
94	3
95	22
97	2
98	2
99	3
103	5
105	999
106	71
107	15
108	176
109	15
110	2
111	4
112	1
113	0
117	1
118	5
119	3
120	5
121	23
122	72
123	647
124	59
125	4
129	3
130	0
131	3
132	2
134	145
135	21
136	13
137	2
139	7
141	6
145	1
146	17
147	7
148	11
149	53
150	8
151	1
157	0
159	9
161	162
162	20
163	3
164	4
165	15
167	8
168	2
169	0
171	4
173	0
175	106
176	95
177	9
182	0
183	5
184	1
189	0
190	1
199	1
202	24
203	20
204	1
206	0
207	11
209	0
227	1
261	11
307	3
325	42
326	8
327	1
