Mass Spectrum: 4'-Bromophenacyl 3-chlorobenzoate
Formula: C15H10BrClO3
CAS: 93897-33-7
Molecular weight: 352
m/z	intensity
35	6
36	10
37	39
38	73
39	75
40	20
41	10
42	62
43	19
44	10
45	12
47	0
48	0
49	41
50	774
51	209
52	32
55	3
56	1
57	2
60	1
61	30
62	33
63	72
64	18
65	5
69	1
70	3
72	4
73	55
74	374
75	999
76	550
77	79
79	16
80	5
81	10
82	4
84	27
85	76
86	16
87	29
88	2
89	65
90	75
91	7
92	4
100	6
101	0
102	1
103	2
104	73
105	14
107	2
108	0
109	1
110	14
111	576
112	38
113	186
114	9
117	0
119	1
128	0
129	3
131	1
135	3
139	434
140	32
141	131
142	8
152	0
154	1
155	163
156	9
157	155
158	8
169	7
171	6
183	327
184	22
185	318
186	21
196	4
198	4
