Mass Spectrum: 3-Pyridinecarboxamide, N-[2-aminoethyl]-
Formula: C8H11N3O
CAS: 939-53-7
Molecular weight: 165
m/z	intensity
41	16
42	18
43	28
44	71
45	14
50	59
51	276
52	53
53	22
55	12
56	10
57	12
58	6
60	9
63	1
65	3
67	3
69	6
71	1
73	1
75	1
76	13
77	39
78	717
79	317
80	29
81	5
91	4
92	3
93	26
94	2
95	1
99	1
105	24
106	999
107	259
108	33
109	3
117	3
119	16
120	8
121	5
122	9
123	218
124	21
134	2
135	748
136	421
137	33
147	37
148	882
149	86
150	4
164	17
165	67
166	1
