Mass Spectrum: 5-Nitro-ortho-tolunitrile
Formula: C8H6N2O2
CAS: 939-83-3
Molecular weight: 162
m/z	intensity
15	2
16	1
25	1
26	12
27	31
29	1
30	239
31	1
36	2
37	40
38	72
39	267
40	17
41	22
42	1
43	5
44	1
46	30
48	2
49	20
50	157
51	162
52	55
53	19
54	2
56	1
60	5
61	65
62	147
63	369
64	121
65	62
66	15
72	1
73	10
74	36
75	77
76	77
77	267
78	43
79	2
84	4
85	18
86	34
87	64
88	126
89	999
90	195
91	11
98	3
99	18
100	11
101	5
102	27
103	17
104	244
105	50
106	4
110	2
111	7
112	5
113	1
114	78
115	51
116	915
117	88
118	3
129	3
130	1
131	25
132	390
133	35
134	2
145	2
146	27
147	2
160	1
162	826
163	78
164	6
