Mass Spectrum: 4-Chloro-3-nitrobenzonitrile
Formula: C7H3ClN2O2
CAS: 939-80-0
Molecular weight: 182
m/z	intensity
16	2
24	1
25	3
26	8
27	8
30	719
31	3
32	1
35	8
36	13
37	84
38	58
39	18
40	1
41	1
44	1
46	45
47	14
48	11
49	84
50	402
51	78
52	26
53	3
59	1
60	21
61	86
62	92
63	63
64	56
65	5
66	1
71	4
72	45
73	147
74	223
75	301
76	108
77	8
78	1
83	2
84	55
85	96
86	55
87	51
88	45
89	19
90	8
91	1
95	1
96	4
97	29
98	34
99	181
100	999
101	140
102	8
103	1
107	1
108	7
109	130
110	55
111	46
112	18
113	1
114	1
115	7
116	3
117	9
118	1
119	2
122	1
124	620
125	51
126	206
127	16
133	1
134	1
135	11
136	751
137	66
138	240
139	19
150	1
151	1
152	164
153	13
154	53
155	4
166	24
167	1
168	7
182	571
183	49
184	189
185	15
186	1
