Mass Spectrum: 1-Benzyl-2-ethoxy-6-oxo-1,2-azaphosphinane 2-oxide
Formula: C13H18NO3P
CAS: 93939-02-7
Molecular weight: 267
m/z	intensity
26	270
29	380
39	290
41	420
42	180
47	150
51	190
65	420
77	290
78	180
79	110
80	500
91	999
92	190
93	140
104	370
105	130
106	200
108	490
132	150
136	860
146	210
147	320
152	140
161	110
210	250
239	320
267	370
268	70
