Mass Spectrum: 1,2,4-Oxadiazole-3-carboxamide, 5-phenyl-N-(4-chlorophenyl)-
Formula: C15H10ClN3O2
CAS: 93944-98-0
Molecular weight: 299
m/z	intensity
33	6
34	1
35	4
36	21
37	17
38	34
39	54
40	14
41	6
42	4
43	19
44	22
45	17
46	7
47	1
48	2
50	137
51	271
52	30
53	7
54	3
55	2
56	1
57	3
58	3
59	3
60	2
61	8
62	20
63	59
64	24
65	13
66	3
67	1
68	0
69	4
70	12
71	2
72	3
73	22
74	29
75	57
77	928
78	57
79	3
80	1
81	0
82	0
83	1
84	1
85	3
86	1
87	3
88	5
89	21
90	40
91	27
92	5
93	2
94	1
95	0
96	0
97	2
99	51
100	7
101	16
103	165
105	999
106	68
107	4
108	0
109	0
111	23
112	2
113	7
114	0
115	0
116	1
117	6
118	15
119	3
120	2
121	8
122	41
123	6
125	54
126	42
127	34
128	18
129	7
130	2
131	2
132	2
133	2
136	134
137	11
139	5
140	1
141	1
142	0
143	0
145	25
146	10
147	9
148	1
150	9
151	5
153	278
154	34
155	78
156	8
157	0
160	1
161	1
162	10
163	0
164	0
165	0
166	0
167	1
168	0
169	0
170	0
171	0
172	0
173	0
174	0
175	0
176	0
177	0
178	1
179	2
180	12
181	3
182	4
183	0
184	0
190	0
191	0
193	0
195	0
196	0
197	1
198	1
199	0
200	0
205	0
210	0
211	0
212	2
214	7
215	1
216	2
217	0
218	0
219	0
221	18
222	3
223	0
224	0
225	0
226	0
231	0
236	0
237	0
240	0
250	0
253	0
254	1
255	5
257	117
258	19
259	31
260	4
261	2
262	3
264	104
265	16
266	1
267	0
269	0
270	0
271	0
272	0
273	0
276	0
279	0
281	0
290	0
291	0
298	40
299	126
300	34
301	41
302	8
303	1
304	0
