Mass Spectrum: 2-Ethoxy-6-oxo-1,2-azaphosphinane 2-oxide
Formula: C6H12NO3P
CAS: 93957-86-9
Molecular weight: 177
m/z	intensity
27	280
29	200
39	300
41	600
42	780
47	230
55	160
57	280
64	100
65	600
78	570
80	250
90	170
93	100
105	190
106	999
107	440
121	230
132	360
133	420
134	160
149	220
150	730
177	830
