Mass Spectrum: 2-Methyl-4-(3'-phenylpropyl)pyridine
Formula: C15H17N
CAS: 93971-09-6
Molecular weight: 211
m/z	intensity
51	31
65	115
66	31
77	110
78	39
79	80
91	237
92	130
93	60
104	40
105	75
106	111
107	999
108	177
118	20
119	52
120	185
121	80
134	30
196	20
211	75
