Mass Spectrum: 2(3'-Phenylpropyl)-4-methylpyridine
Formula: C15H17N
CAS: 93971-10-9
Molecular weight: 211
m/z	intensity
51	26
65	76
77	83
78	30
79	68
91	218
92	98
93	41
104	38
105	76
106	98
107	999
108	180
119	60
120	195
121	90
134	105
211	151
