Mass Spectrum: 2-(3'-Phenylpropyl)-5-ethylpyridine
Formula: C16H19N
CAS: 93971-11-0
Molecular weight: 225
m/z	intensity
51	25
65	100
66	46
77	104
78	104
79	79
89	313
90	138
91	999
92	204
103	35
104	70
105	66
106	396
107	90
116	25
117	29
118	31
119	58
120	458
121	83
134	70
197	52
225	20
