Mass Spectrum: Benzyl alcohol, p-hydroxy-.alpha.-[(methylamino)methyl]-
Formula: C9H13NO2
CAS: 94-07-5
Molecular weight: 167
m/z	intensity
12	5
13	2
14	37
15	64
16	23
17	14
18	49
19	1
26	13
27	40
28	6
29	37
30	44
31	8
36	1
37	10
38	25
39	111
40	25
41	42
42	210
43	43
44	999
45	57
46	25
47	2
48	1
49	5
50	35
51	67
52	26
53	36
54	7
55	24
56	5
57	7
58	4
59	1
60	1
61	10
62	23
63	49
64	15
65	80
66	33
67	15
68	5
69	2
70	1
73	3
74	10
75	9
76	7
77	153
78	37
79	20
80	10
81	6
82	1
86	3
87	2
88	2
89	10
90	9
91	31
92	8
93	20
94	26
95	62
96	3
97	1
98	1
99	1
101	1
102	1
103	4
104	5
105	10
106	10
107	95
108	120
109	10
110	1
116	5
117	4
118	7
119	11
120	31
121	51
122	14
123	44
124	4
128	1
129	1
130	3
131	3
132	5
133	11
134	6
135	2
136	2
144	1
145	5
146	5
147	13
148	42
149	11
150	2
165	1
167	4
168	2
