Mass Spectrum: Lipoamide
Formula: C8H15NOS2
CAS: 940-69-2
Molecular weight: 205
m/z	intensity
15	2
16	1
17	1
18	13
26	6
27	69
28	22
29	57
30	12
31	4
32	1
33	1
34	2
35	2
37	1
38	7
39	150
40	22
41	337
42	60
43	108
44	467
45	170
46	33
47	54
48	3
49	3
50	8
51	22
52	11
53	111
54	43
55	500
56	59
57	48
58	56
59	999
60	87
61	57
62	5
63	8
64	44
65	56
66	23
67	166
68	26
69	59
70	20
71	49
72	271
73	97
74	8
75	5
76	4
77	36
78	21
79	164
80	25
81	272
82	32
83	27
84	29
85	81
86	70
87	54
88	5
89	3
90	1
91	23
92	5
93	66
94	13
95	212
96	39
97	60
98	134
99	73
100	36
101	20
102	3
103	22
104	3
105	193
106	16
107	19
108	2
109	8
110	7
111	19
112	72
113	144
114	14
115	10
116	2
117	6
118	5
119	13
120	7
121	38
122	12
123	252
124	62
125	8
126	37
127	87
128	24
129	12
130	2
131	3
132	8
133	2
134	1
135	1
136	1
137	23
138	9
140	286
141	92
142	8
143	1
144	5
145	2
146	18
147	3
148	2
153	2
154	26
155	249
156	26
157	13
158	2
159	2
160	6
161	6
162	1
163	1
171	9
172	86
173	9
174	4
187	4
188	16
189	6
190	2
191	1
203	1
205	379
206	42
207	38
208	4
209	1
