Mass Spectrum: Beta-methyl-beta-phenoxyphenethyl alcohol
Formula: C15H16O2
CAS: 94001-80-6
Molecular weight: 228
m/z	intensity
15	1
18	2
27	10
28	5
29	23
31	8
37	1
38	5
39	39
40	7
41	4
43	191
44	4
47	1
50	10
51	53
52	9
53	5
55	9
56	4
57	86
58	3
62	3
63	13
64	4
65	46
66	21
67	2
74	4
75	5
76	8
77	138
78	48
79	36
80	2
89	5
90	2
91	80
92	36
93	39
94	999
95	82
96	5
98	1
101	1
102	9
103	133
104	32
105	198
106	22
107	4
115	28
116	8
117	106
118	15
119	9
120	2
121	4
128	1
129	1
132	1
133	23
134	446
135	267
136	24
137	1
141	1
149	2
151	1
152	5
153	4
154	4
155	1
163	2
165	2
167	1
169	2
178	2
179	1
181	2
182	1
194	1
195	1
197	96
198	14
199	1
228	35
229	6
