Mass Spectrum: 6-Amino-2-phenyl-1,3,5-thiadiazine-4-thione
Formula: C9H7N3S2
CAS: 94014-48-9
Molecular weight: 221
m/z	intensity
39	31
40	25
44	32
50	68
51	150
52	28
58	15
59	62
60	100
63	17
74	17
75	35
76	161
77	348
78	23
85	47
102	18
103	195
104	999
105	103
118	52
129	119
163	45
188	28
220	50
221	660
222	111
223	64
