Mass Spectrum: 1-Vinyl-1,1,3,3,3-pentabutoxydisiloxane
Formula: C22H48O6Si2
CAS: 94048-04-1
Molecular weight: 464
m/z	intensity
41	352
42	215
43	96
55	129
56	94
57	999
58	167
59	67
60	61
71	74
72	4
85	33
139	50
140	11
141	31
142	7
157	224
158	52
159	9
167	581
168	166
169	67
213	42
214	16
223	68
224	17
269	27
270	7
279	43
280	10
325	31
326	9
335	108
336	39
337	25
338	25
381	116
382	30
391	831
392	226
393	110
394	29
437	49
438	12
