Mass Spectrum: 1,3-Dioxolane, 4-methyl-2-(1-pentenyl)-, (E)-
Formula: C9H16O2
CAS: 94089-21-1
Molecular weight: 156
m/z	intensity
38	40
39	304
40	42
41	893
42	230
43	200
45	58
47	9
50	4
51	26
52	13
53	126
54	57
55	926
56	107
57	121
58	35
59	371
60	19
63	4
65	12
66	2
67	102
68	51
69	779
70	54
71	27
72	17
73	20
79	10
81	49
82	8
83	230
84	12
85	26
87	439
88	49
89	4
95	6
97	201
98	27
99	39
100	14
101	6
111	13
112	5
113	999
114	97
116	7
117	3
127	403
128	24
141	12
155	120
156	8
