Mass Spectrum: Benzenesulfonyl azide, 4-methyl-
Formula: C7H7N3O2S
CAS: 941-55-9
Molecular weight: 197
m/z	intensity
37	30
40	20
51	20
63	30
64	60
65	140
77	30
78	20
79	20
89	40
90	20
91	999
92	80
106	190
107	160
155	990
156	70
157	40
197	140
198	20
