Mass Spectrum: Dimethyl 3,3'-oxydipropanoate
Formula: C8H14O5
CAS: 94102-60-0
Molecular weight: 190
m/z	intensity
27	138
28	191
29	112
30	23
31	86
32	8
33	30
35	11
36	12
39	17
40	4
41	62
42	124
43	262
44	37
45	758
46	17
47	6
50	80
53	7
54	2
55	901
56	112
57	295
58	60
59	705
60	29
61	93
64	36
65	5
66	4
67	7
68	4
69	17
70	9
71	293
72	22
73	39
74	93
75	23
77	8
79	14
80	6
83	4
84	14
85	34
86	16
87	999
88	800
89	50
90	4
91	9
92	4
93	8
94	6
97	5
98	60
99	10
100	14
101	30
102	24
103	438
104	32
105	9
106	3
107	7
117	130
118	7
121	8
122	6
127	34
128	577
129	43
130	6
131	337
132	27
157	8
158	10
159	25
190	5
