Mass Spectrum: Cyclohexanone, 3-(hydroxymethyl)-, p-toluenesulfonate
Formula: C14H18O4S
CAS: 94112-88-6
Molecular weight: 282
m/z	intensity
26	16
27	101
28	26
29	84
30	4
31	19
37	4
38	13
39	204
40	35
41	454
42	96
43	78
44	15
45	11
50	18
51	31
52	19
53	61
54	223
55	412
56	45
57	58
58	10
59	6
60	8
61	5
62	6
63	24
64	9
65	98
66	29
67	507
68	137
69	199
70	99
71	34
72	9
73	11
74	9
75	5
76	6
77	42
78	76
79	65
80	32
81	145
82	560
83	147
84	247
85	49
86	6
87	7
88	6
89	30
90	23
91	613
92	74
93	57
94	32
95	229
96	42
97	579
98	123
99	29
100	7
101	4
103	5
104	4
105	12
106	7
107	23
108	23
109	37
110	999
111	339
112	40
113	20
114	11
115	6
116	4
118	3
119	13
120	7
121	4
123	11
124	28
125	18
126	75
127	116
128	144
129	38
130	10
131	15
132	11
133	13
134	22
135	5
136	4
137	7
138	6
139	26
140	8
141	85
142	17
143	6
144	5
146	13
148	5
154	4
155	380
156	55
157	42
165	4
167	4
170	9
172	11
173	12
175	4
178	6
192	11
194	6
220	4
238	14
239	94
240	14
241	7
282	91
283	18
284	8
