Mass Spectrum: 3-Nitro-9-benzyl-carbazole
Formula: C19H14N2O2
CAS: 94127-10-3
Molecular weight: 302
m/z	intensity
30	29
91	999
138	29
139	20
153	39
164	50
165	40
179	10
181	20
211	10
225	9
254	30
256	19
272	9
286	9
302	230
