Mass Spectrum: 2-Propenamide, 2-[(diethylamino)methyl]-N,N-diethyl-
Formula: C12H24N2O
CAS: 94123-17-8
Molecular weight: 212
m/z	intensity
26	18
27	134
28	186
29	374
30	261
31	4
37	1
38	3
39	58
40	57
41	136
42	264
43	25
44	86
45	3
46	1
50	0
51	1
52	4
53	8
54	29
55	61
56	160
57	27
58	171
59	8
63	0
64	0
66	3
67	8
68	31
69	96
70	40
71	20
72	999
73	80
74	15
75	0
76	0
78	0
80	4
82	22
83	12
84	46
85	18
86	478
87	30
88	1
91	30
92	0
94	3
95	2
96	174
97	13
98	36
99	6
100	29
101	2
102	1
106	0
110	141
111	52
112	182
113	80
114	7
115	1
119	0
122	0
124	43
125	7
126	170
127	12
128	1
129	1
138	14
139	32
140	434
141	62
142	14
143	1
144	3
153	3
154	0
155	4
156	1
169	5
183	46
184	6
195	2
196	0
197	35
198	5
211	2
212	41
213	8
214	0
