Mass Spectrum: Butanediamide, N,N,N',N'-tetraethyl-2-(1-methylethylidene)-
Formula: C15H28N2O2
CAS: 94123-20-3
Molecular weight: 268
m/z	intensity
26	16
27	178
28	116
29	780
30	88
31	4
36	1
38	1
39	50
40	30
41	172
42	132
43	21
44	297
45	8
46	2
50	1
51	14
52	13
53	50
54	14
55	24
56	78
57	13
58	69
59	5
63	2
64	1
65	24
66	18
67	190
68	84
69	58
70	36
71	24
72	999
73	46
74	20
78	0
80	2
81	6
82	3
83	6
84	7
85	3
86	17
87	4
88	0
92	1
94	11
95	73
96	46
97	41
98	10
99	2
100	804
101	50
102	1
106	0
108	0
110	4
111	0
112	4
113	1
114	1
115	10
119	2
122	6
123	15
124	22
125	6
126	24
127	4
128	2
129	1
136	1
138	33
139	3
141	2
142	1
143	3
144	4
145	0
150	9
151	1
152	87
153	10
166	28
167	54
168	307
169	15
170	2
171	1
180	107
181	6
194	10
195	398
196	870
197	110
198	7
200	4
239	6
240	3
252	2
253	105
254	17
255	1
267	0
268	73
269	14
270	0
