Mass Spectrum: 2-Butenoic acid, 2-methyl-, 4-methylpentyl ester, (E)-
Formula: C11H20O2
CAS: 94135-07-6
Molecular weight: 184
m/z	intensity
26	3
27	72
29	117
30	3
31	6
37	2
38	9
39	141
40	22
41	207
42	57
43	563
44	21
50	6
51	11
52	5
53	72
54	25
55	322
56	189
57	83
59	22
62	1
69	104
70	9
71	6
72	2
82	69
83	999
84	114
85	211
86	12
98	5
99	7
100	471
101	492
102	27
109	2
113	4
114	1
123	1
138	1
141	5
169	1
184	33
185	2
