Mass Spectrum: 2-Propenoic acid, 2-methyl-, 1-methylbutyl ester
Formula: C9H16O2
CAS: 94159-12-3
Molecular weight: 156
m/z	intensity
27	410
28	80
29	340
38	70
39	660
40	120
41	999
42	190
43	580
45	100
55	180
69	810
70	310
71	50
87	150
