Mass Spectrum: Butanoic acid, 2,3-dimethyl-4-nitro-, 1,1-dimethylethyl ester
Formula: C10H19NO4
CAS: 94194-45-3
Molecular weight: 217
m/z	intensity
26	6
27	51
28	27
29	147
30	17
31	11
38	3
39	59
40	11
41	302
42	29
43	43
44	7
45	30
46	2
50	2
51	3
52	2
53	14
54	7
55	71
56	95
57	999
58	51
59	56
60	2
62	3
67	8
68	3
69	277
70	38
71	7
72	2
73	13
74	8
75	15
81	3
82	3
83	8
84	3
85	8
86	2
87	5
95	3
97	11
98	2
99	3
100	2
101	2
109	2
111	2
112	4
113	15
114	3
115	78
116	55
117	34
128	2
130	10
131	2
141	2
143	4
144	215
145	16
146	2
149	3
162	4
177	1
202	1
