Mass Spectrum: p-Chlorophenyl (2-(benzoyloxy)ethyl)carbamate
Formula: C16H14ClNO4
CAS: 94207-34-8
Molecular weight: 319
m/z	intensity
15	8
26	2
27	9
28	12
29	5
31	9
36	1
37	9
38	12
39	33
40	4
41	6
42	17
43	5
44	6
45	3
46	9
47	1
48	1
49	5
50	36
51	101
52	6
53	10
55	5
56	5
57	3
59	2
60	2
61	7
62	11
63	29
64	56
65	120
66	9
67	2
68	1
69	49
70	7
71	3
72	3
73	19
74	15
75	15
76	17
77	365
78	25
79	2
81	1
83	2
85	1
89	4
90	1
91	2
92	15
93	18
94	2
95	1
97	2
99	19
100	58
101	9
102	18
103	2
104	9
105	999
106	75
107	5
110	1
111	1
117	6
118	2
119	10
120	1
121	1
122	321
123	26
124	2
127	4
128	485
129	34
130	153
131	9
135	6
146	3
147	26
148	3
149	2
191	6
