Mass Spectrum: 5-Methyl-1-phenylhex-5-en-1-one
Formula: C13H16O
CAS: 94227-05-1
Molecular weight: 188
m/z	intensity
26	12
27	123
28	59
29	112
30	3
31	3
32	14
34	1
36	1
37	2
38	8
39	130
40	28
41	142
42	20
43	46
44	3
45	9
49	1
50	42
51	195
52	20
53	41
54	11
55	164
56	20
57	16
58	5
59	4
60	24
61	13
62	3
63	11
64	4
65	22
66	6
67	37
68	30
69	53
70	12
71	7
72	1
73	8
74	9
75	12
76	26
77	601
78	189
79	27
80	5
81	13
82	34
83	17
84	3
85	11
86	3
87	2
88	10
89	6
90	3
91	52
92	42
93	7
94	6
95	9
96	3
97	7
98	1
99	4
100	1
101	5
102	5
103	13
104	11
105	999
106	79
107	9
108	2
109	5
110	6
111	14
112	2
113	3
114	1
115	18
116	5
117	12
118	4
119	6
120	749
121	69
122	15
123	4
124	1
125	1
126	1
127	6
128	9
129	8
130	3
131	11
132	5
133	108
134	10
135	3
136	1
137	1
138	1
139	2
141	5
142	2
143	3
144	6
145	15
146	3
147	2
148	3
149	2
150	7
151	2
152	4
153	3
154	4
155	13
156	6
157	2
158	2
159	9
160	2
161	1
163	1
164	1
165	4
166	1
167	4
168	8
169	4
170	45
171	8
172	2
173	18
174	2
175	1
176	1
179	1
180	1
181	1
186	1
187	2
188	92
189	14
190	1
