Mass Spectrum: Biphenyl-4-yl-(4-methoxy-phenyl)-diazene
Formula: C19H16N2O
CAS: 94258-14-7
Molecular weight: 288
m/z	intensity
26	1
27	7
29	1
37	1
38	10
39	22
40	1
43	1
50	25
51	55
52	20
53	11
54	0
57	1
61	1
62	12
63	67
64	115
65	17
66	4
67	0
74	12
75	28
76	39
77	348
78	42
79	25
80	9
81	0
85	6
86	3
87	8
88	5
89	9
90	3
91	6
92	229
93	18
94	1
95	1
96	0
98	2
99	3
100	2
101	12
102	20
103	5
104	1
105	3
106	7
107	999
108	90
109	5
111	1
112	0
113	6
114	5
115	21
116	3
121	2
122	5
123	2
125	4
126	25
127	55
128	8
129	1
135	401
136	37
137	3
138	2
139	16
140	10
141	5
144	61
145	1
149	4
150	17
151	90
152	332
153	603
154	92
155	6
163	0
164	2
165	6
166	7
167	4
168	3
169	5
170	0
176	1
177	0
178	3
179	1
181	20
182	3
188	0
189	6
190	1
191	5
192	1
201	1
202	16
203	3
213	2
214	1
215	22
216	7
217	23
218	4
219	0
226	4
227	3
228	4
229	2
230	0
243	1
244	2
245	6
246	1
259	0
260	2
273	1
287	2
288	497
289	118
290	14
291	1
