Mass Spectrum: 1-Phenylethanol, heptafluorobutyrate
Formula: C12H9F7O2
CAS: 942606-93-1
Molecular weight: 318
m/z	intensity
15	1
26	3
27	25
28	4
29	2
31	10
37	3
38	8
39	43
40	3
41	1
42	1
43	41
44	4
45	42
46	1
47	2
49	4
50	67
51	174
52	45
53	14
54	1
55	1
60	1
61	5
62	15
63	39
64	7
65	17
66	2
67	4
68	1
69	169
70	2
71	1
73	3
74	23
75	17
76	23
77	249
78	198
79	99
80	6
81	3
85	2
86	2
87	3
88	1
89	16
90	5
91	19
92	3
93	3
95	1
97	2
98	3
99	1
100	60
101	5
102	31
103	239
104	803
105	999
106	87
107	4
109	13
110	1
119	59
120	3
121	19
122	2
123	1
127	9
128	1
131	9
147	2
149	4
150	29
151	1
158	1
169	97
170	3
177	3
197	2
207	3
227	1
275	15
276	2
303	12
304	1
318	90
319	11
320	1
