Mass Spectrum: p-Amino-L-phenylalanine
Formula: C9H12N2O2
CAS: 943-80-6
Molecular weight: 180
m/z	intensity
18	2
27	1
28	8
29	1
30	2
39	4
41	1
42	2
44	1
50	1
51	4
52	4
53	4
54	2
63	3
64	1
65	7
66	5
67	11
68	1
74	2
76	1
77	32
78	10
79	29
80	6
89	5
90	3
91	9
92	3
93	12
94	1
104	9
105	5
106	999
107	89
108	5
116	2
117	7
118	23
119	6
131	3
132	4
133	6
134	13
135	17
136	2
146	1
162	3
164	1
180	57
181	7
