Mass Spectrum: Carbonic acid, 1-methylethyl phenyl ester
Formula: C10H12O3
CAS: 943-57-7
Molecular weight: 180
m/z	intensity
41	145
42	30
43	448
44	60
50	9
51	36
64	9
65	60
66	36
77	151
78	6
93	21
94	999
95	66
103	24
121	424
122	24
135	30
136	81
165	24
180	24
