Mass Spectrum: Octadecan-4-one
Formula: C18H36O
CAS: 94307-14-9
Molecular weight: 268
m/z	intensity
26	8
27	33
29	276
30	6
31	4
39	14
40	4
41	204
42	45
43	458
44	14
45	5
53	11
54	20
55	228
56	65
57	809
58	46
59	12
66	3
67	52
68	26
69	127
70	38
71	276
72	999
73	718
74	34
75	3
79	7
80	4
81	64
82	36
83	114
84	29
85	371
86	35
93	3
94	3
95	98
96	61
97	74
98	26
99	88
100	9
109	63
110	36
111	33
112	9
113	23
114	49
115	4
123	35
124	15
125	18
126	5
127	19
128	25
137	17
138	9
139	9
140	4
141	25
142	3
151	8
152	10
153	4
155	6
156	3
165	6
166	8
168	3
169	4
170	3
180	5
183	9
184	3
194	32
195	5
196	16
197	11
208	3
211	7
213	5
221	7
225	10
226	4
239	496
240	85
241	8
250	12
251	3
267	3
268	57
269	14
