Mass Spectrum: 2-Bromo-N-phenylpropionamide
Formula: C9H10BrNO
CAS: 94347-34-9
Molecular weight: 227
m/z	intensity
15	1
17	0
18	0
26	11
27	76
28	45
29	9
36	1
37	3
38	13
39	51
40	8
41	6
42	3
44	2
45	0
46	1
50	12
51	34
52	12
53	3
54	3
55	29
56	15
57	3
61	1
62	4
63	25
64	5
65	115
66	32
67	2
73	0
74	5
75	1
76	7
77	125
78	11
79	3
80	5
82	4
90	2
91	23
92	98
93	999
94	62
95	2
103	9
104	5
105	1
106	0
107	62
109	57
118	7
119	35
120	278
121	14
122	0
130	0
134	1
135	5
137	5
146	1
147	6
148	14
149	5
171	1
173	1
227	120
228	9
229	114
230	8
