Mass Spectrum: (2E,4E,14E)-N-Isobutylicosa-2,4,14-trienamide
Formula: C24H43NO
CAS: 943546-21-2
Molecular weight: 361
m/z	intensity
27	35
29	125
30	36
39	81
40	26
41	574
42	89
43	354
44	25
52	11
53	218
54	95
55	762
56	147
57	480
58	35
59	25
60	126
65	78
66	218
67	593
68	121
69	347
71	46
72	106
73	24
74	69
77	106
78	29
79	308
80	113
81	999
82	154
83	175
84	45
85	34
91	83
92	25
93	131
94	151
95	359
96	246
97	78
99	15
100	50
105	40
106	16
107	194
108	54
109	138
110	132
111	38
115	371
116	74
119	42
120	35
121	110
122	38
123	60
124	69
125	16
126	54
128	104
133	45
134	18
136	29
137	32
138	36
145	15
147	20
149	29
152	721
153	91
154	100
163	19
165	15
166	100
167	116
168	48
175	10
177	13
180	230
181	34
182	17
191	9
192	12
205	17
208	36
209	11
210	16
219	15
220	27
222	38
223	12
224	43
233	7
234	18
235	4
236	62
237	24
238	16
247	11
248	18
250	36
251	10
252	7
261	11
262	28
263	7
264	19
265	6
276	36
277	12
278	11
289	178
290	103
291	23
292	7
294	5
304	142
305	33
306	10
318	67
319	15
320	13
321	3
332	28
333	8
346	31
347	9
360	28
361	416
362	110
363	15
