Mass Spectrum: (2E,4E,12E)-1-(Piperidin-1-yl)octadeca-2,4,12-trien-1-one
Formula: C23H39NO
CAS: 943546-19-8
Molecular weight: 345
m/z	intensity
27	24
29	47
30	12
39	74
40	19
41	476
42	107
43	146
44	26
51	15
52	11
53	240
54	90
55	864
56	170
57	78
58	9
60	12
65	96
66	225
67	494
68	94
69	428
70	82
71	14
74	6
77	132
78	27
79	302
80	85
81	789
82	132
83	133
84	999
85	137
86	139
87	9
91	81
92	21
93	105
94	121
95	270
96	75
97	55
98	16
99	14
105	36
106	18
107	165
108	59
109	90
110	43
111	19
112	509
113	42
114	12
117	16
118	7
119	27
120	33
121	66
122	67
123	46
124	40
125	16
126	26
127	547
128	70
133	20
134	45
136	66
137	74
138	381
139	87
140	77
145	7
147	10
148	20
149	20
150	124
151	52
152	63
153	38
154	16
155	5
162	13
163	15
164	868
165	119
166	81
167	16
175	6
176	14
177	14
178	226
179	168
180	44
181	6
182	4
189	4
190	11
191	6
192	600
193	94
194	23
195	6
196	7
204	7
205	5
206	87
207	16
208	74
209	19
210	3
219	5
220	58
221	16
222	16
233	7
234	64
235	14
236	12
246	9
248	184
249	46
250	13
260	20
261	19
262	46
263	10
264	7
274	21
275	5
277	2
278	4
288	40
289	11
291	2
302	100
303	25
304	21
305	6
316	206
317	54
318	9
319	1
328	16
329	6
330	20
331	4
344	31
345	325
346	83
