Mass Spectrum: 9-Phosphabicyclo[4.2.1]nona-2,4,7-trien-9-amine, N,N-diethyl-, syn-
Formula: C12H18NP
CAS: 94358-81-3
Molecular weight: 207
m/z	intensity
26	11
27	58
28	35
29	73
30	22
33	2
38	5
39	56
40	5
41	17
42	35
43	5
44	29
45	9
46	217
47	3
48	8
50	19
51	45
52	21
53	8
54	4
55	3
56	25
57	39
58	75
59	17
60	13
61	3
62	4
63	17
64	3
65	32
66	4
68	3
69	11
70	43
71	7
72	88
73	17
74	999
75	49
76	18
77	42
78	40
79	8
80	3
81	6
83	13
84	5
85	3
86	4
88	20
89	9
90	17
91	76
92	16
95	3
96	4
102	23
103	425
104	62
105	8
107	17
108	27
109	25
110	2
114	5
115	3
116	9
117	5
120	3
121	10
131	3
132	2
133	109
134	36
135	166
136	90
137	10
140	5
157	2
164	9
178	15
179	2
192	12
206	10
207	141
208	18
