Mass Spectrum: (1S,3aS,4S,7R,8aS)-1,4,9,9-Tetramethyldecahydro-4,7-(epoxymethano)azulen-3a-ol
Formula: C15H26O2
CAS: 94388-63-3
Molecular weight: 238
m/z	intensity
27	9
28	3
29	15
39	25
40	6
41	114
42	20
43	261
44	7
45	7
50	1
51	4
52	2
53	33
54	10
55	146
56	20
57	23
58	61
61	2
63	1
64	1
65	14
66	6
67	79
68	25
69	177
70	63
71	92
72	6
73	1
77	26
78	4
79	21
80	7
81	41
82	51
83	340
84	30
85	17
86	2
87	1
93	30
94	19
95	91
96	18
97	173
98	130
99	14
100	2
104	3
108	102
109	134
110	140
111	999
112	86
113	11
114	1
116	1
117	4
118	1
120	7
121	34
123	107
124	42
125	115
126	247
127	59
128	19
129	4
130	1
131	8
132	4
137	16
138	19
139	11
140	3
141	10
142	1
143	2
144	1
145	19
146	4
147	14
149	27
150	69
151	27
152	4
153	126
154	13
155	1
158	1
159	22
160	6
162	12
163	40
164	11
165	15
166	3
167	7
168	18
169	2
173	2
174	1
176	3
177	188
178	35
179	4
180	3
181	2
182	3
183	1
187	28
188	4
191	5
192	3
194	1
195	2
202	15
203	2
205	113
206	18
209	7
210	1
219	1
220	56
221	9
223	32
224	5
225	1
238	100
239	17
240	2
