Mass Spectrum: Phosphonothioic acid, ethyl-, O-ethyl S-phenyl ester
Formula: C10H15O2PS
CAS: 944-21-8
Molecular weight: 230
m/z	intensity
26	25
27	187
28	80
29	460
30	13
31	7
32	8
33	2
34	3
37	2
38	11
39	125
40	7
41	8
42	14
43	26
44	46
45	79
46	4
47	67
48	11
49	13
50	28
51	88
52	8
53	3
55	3
56	1
57	17
58	18
59	14
60	4
61	5
62	7
63	52
65	571
66	78
67	6
69	67
70	5
71	8
72	1
73	2
74	6
75	8
76	10
77	78
78	20
79	7
80	2
81	14
82	20
83	12
84	25
85	2
86	1
88	1
89	1
91	17
93	999
94	86
95	12
96	2
97	7
98	1
99	1
103	4
104	41
105	97
106	17
107	5
108	29
109	241
110	288
111	40
112	13
113	1
119	1
121	333
122	17
123	30
124	3
125	9
126	13
127	1
128	1
132	1
133	1
135	6
136	2
137	15
138	12
139	8
140	2
141	5
142	1
149	2
152	1
153	7
154	7
155	8
156	4
157	10
158	21
159	2
160	1
162	1
169	6
170	1
172	1
173	10
174	1
175	1
179	1
185	23
186	10
187	2
201	2
202	19
203	3
204	1
215	1
218	9
219	1
230	220
231	29
232	12
233	1
