Mass Spectrum: 4-Phenyl-2-(pyrrolidin-2-yl)-1H-imidazole
Formula: C13H15N3
CAS: 944030-47-1
Molecular weight: 213
m/z	intensity
28	21
29	168
30	6
37	15
38	59
39	281
40	87
41	658
42	159
43	174
44	27
50	176
51	430
52	274
53	220
54	260
55	142
56	83
61	21
62	161
63	446
64	163
65	181
66	101
67	144
68	392
69	98
70	999
71	50
74	52
75	102
76	219
77	676
78	185
79	103
80	65
81	80
82	58
83	12
86	20
87	42
88	86
89	789
90	480
91	591
92	120
93	33
94	11
100	9
101	30
102	848
103	340
104	380
105	39
108	20
109	87
110	2
114	30
115	86
116	231
117	336
118	264
119	19
127	13
128	60
129	29
130	94
131	6
142	30
143	47
144	136
145	154
146	18
155	12
156	8
157	155
158	537
159	56
160	4
169	48
170	666
171	415
172	54
173	4
183	28
184	120
185	135
186	11
198	7
212	8
213	440
214	69
215	4
