Mass Spectrum: 4-(1,1-Ethylenedioxyethyl)tropolone
Formula: C11H12O4
CAS: 94407-37-1
Molecular weight: 208
m/z	intensity
15	8
26	2
27	9
28	10
29	6
31	3
37	2
38	9
39	59
40	5
41	3
42	8
43	361
44	8
45	7
46	2
50	10
51	17
52	7
53	12
54	1
55	7
60	1
61	3
62	7
63	22
64	11
65	55
66	11
67	3
68	1
69	1
73	3
74	4
75	4
76	4
77	15
78	4
79	8
80	2
81	2
82	1
86	3
87	999
88	48
89	9
90	3
91	20
92	9
93	32
94	6
95	2
96	9
97	1
98	3
99	1
100	2
103	2
104	1
105	2
106	1
107	13
108	5
109	1
113	1
118	2
119	6
120	3
121	94
122	12
123	2
127	9
133	3
134	1
135	8
136	5
137	3
147	1
149	14
150	2
151	1
163	2
164	22
165	74
166	7
178	3
179	1
180	2
193	186
194	20
195	2
208	183
209	24
210	3
