Mass Spectrum: N,N'-Isophthaloylbis(3-aminobenzoic acid)
Formula: C22H16N2O6
CAS: 94413-83-9
Molecular weight: 404
m/z	intensity
34	14
36	98
37	125
38	233
39	553
40	337
41	210
42	117
43	104
44	218
45	53
46	43
49	25
50	223
51	303
52	196
53	98
54	53
55	97
56	38
57	93
58	8
60	15
61	41
62	65
63	119
64	93
65	317
66	587
67	164
69	57
70	47
71	37
73	67
75	22
76	46
78	241
79	77
80	11
81	10
82	9
83	28
84	22
85	6
87	3
88	3
89	3
90	12
92	377
93	999
94	62
95	13
96	5
97	12
98	5
103	2
104	15
105	7
106	12
107	32
108	1
109	2
110	1
111	5
112	21
113	6
115	1
119	8
120	21
121	9
125	3
128	2
129	2
137	54
138	2
149	33
152	2
157	1
166	3
167	3
170	5
171	25
214	2
222	2
267	1
268	92
269	13
270	2
283	4
404	11
