Mass Spectrum: Arachidonoyl ethanolamide
Formula: C22H37NO2
CAS: 94421-68-8
Molecular weight: 347
m/z	intensity
39	121
40	31
41	545
42	97
43	188
44	224
45	84
50	12
51	30
52	21
53	127
54	107
55	437
56	66
57	85
58	13
59	33
60	616
61	60
62	621
63	22
65	144
66	122
67	659
68	97
69	149
70	146
71	23
72	152
73	28
74	26
75	70
76	13
77	380
78	168
79	825
80	417
81	287
82	71
83	66
84	38
85	832
86	143
87	21
88	62
89	12
90	17
91	659
92	159
93	432
94	138
95	147
96	56
97	77
98	350
99	85
100	19
103	999
104	145
105	325
106	112
107	159
108	70
109	57
110	27
111	36
112	19
113	10
114	13
115	70
116	308
117	212
118	54
119	173
120	68
121	121
122	51
123	37
124	164
125	281
126	47
127	16
128	58
129	69
130	60
131	131
132	46
133	175
134	50
135	97
136	76
137	35
138	193
139	115
140	33
141	18
142	34
143	30
144	34
145	78
146	55
147	116
148	58
149	86
150	151
151	53
152	81
153	30
154	14
155	11
156	43
157	39
158	53
159	44
160	23
161	62
162	32
163	36
164	52
165	21
166	18
167	9
168	9
169	20
170	54
171	19
172	19
173	37
174	18
175	115
176	55
177	63
178	108
179	57
180	18
181	9
182	17
183	17
184	27
185	10
187	39
188	23
189	49
190	41
191	21
192	72
193	10
194	18
195	15
196	29
197	13
198	43
199	13
201	29
202	12
203	58
204	64
205	21
206	19
207	26
208	31
209	69
210	46
211	14
212	13
215	25
216	16
217	33
218	116
219	33
220	13
221	12
222	79
223	19
224	14
230	15
231	20
232	24
233	9
234	18
236	50
237	17
238	9
244	59
245	28
246	13
248	19
249	25
250	29
251	12
253	2
256	10
258	51
259	20
262	29
263	12
267	12
268	9
269	11
272	75
273	23
274	9
276	24
281	29
282	7
286	29
287	13
288	11
290	11
300	20
301	11
304	9
316	21
327	10
328	38
329	46
330	13
346	23
347	24
348	9
