Mass Spectrum: Hexahydropyridine, 4-[4,5-dihydroxyphenyl]-
Formula: C11H15NO2
CAS: 94427-43-7
Molecular weight: 193
m/z	intensity
42	229
43	421
44	197
45	57
46	51
47	2
48	1
49	0
50	27
51	87
52	38
53	63
54	27
55	79
56	751
57	999
58	67
59	2
60	11
61	5
62	17
63	53
64	27
65	51
66	16
67	17
68	80
69	27
70	34
71	11
72	3
73	8
74	10
75	12
76	11
77	121
78	87
79	44
80	20
81	18
82	110
83	240
84	22
85	4
86	1
87	6
88	9
89	85
90	29
91	84
92	17
93	8
94	8
95	7
96	5
97	13
98	2
99	2
101	6
102	13
103	39
104	18
105	18
106	36
107	28
108	7
109	6
110	30
111	5
113	2
114	2
115	29
116	13
117	28
118	11
119	33
120	9
121	8
122	5
123	59
124	41
125	5
127	6
128	2
129	4
130	6
131	28
132	17
133	15
134	10
135	30
136	152
137	90
138	28
139	4
141	2
143	4
144	4
145	13
146	9
147	18
148	7
149	21
150	83
151	20
152	4
155	4
156	0
157	2
158	4
159	6
160	2
161	7
162	11
163	11
164	25
165	5
174	0
175	6
176	9
177	12
178	32
179	5
181	0
187	0
189	1
190	3
191	4
192	66
193	624
194	101
195	11
