Mass Spectrum: Dimethyl 2-octylnonane-1,9-dioate
Formula: C19H36O4
CAS: 94433-98-4
Molecular weight: 328
m/z	intensity
29	92
31	8
33	10
39	23
41	290
42	16
43	175
52	2
53	18
54	26
55	512
56	10
59	82
61	4
66	2
67	106
68	49
69	359
70	3
73	3
74	380
75	36
79	20
80	13
81	109
82	28
83	248
84	270
87	999
88	38
92	8
93	9
94	6
95	65
96	38
97	155
98	595
99	25
100	28
101	122
102	16
106	3
107	22
108	16
109	39
110	66
111	243
112	125
114	92
115	38
116	8
121	13
123	23
124	115
125	25
126	16
128	66
129	118
130	78
133	4
134	2
135	9
137	18
138	158
139	13
140	11
142	169
143	735
144	52
148	6
151	22
152	859
153	75
154	143
155	6
156	106
157	60
158	23
160	62
162	5
165	40
166	59
167	10
168	29
170	88
172	90
174	112
175	6
180	16
181	6
182	23
183	7
184	712
185	76
186	890
187	68
188	62
189	6
192	5
193	3
194	49
195	7
196	50
197	19
198	83
199	39
200	105
201	2
202	73
203	9
208	32
212	33
213	15
214	55
216	345
217	39
218	13
219	13
222	6
223	16
226	40
227	5
228	26
229	5
230	19
235	8
236	70
237	67
238	8
240	29
243	6
244	9
246	7
250	6
254	9
255	56
256	7
263	18
264	88
265	19
268	10
269	289
270	48
295	6
296	60
297	102
298	21
299	3
