Mass Spectrum: o-Phthalaldehydebis(benzoylhydrazone)
Formula: C22H18N4O2
CAS: 94445-82-6
Molecular weight: 370
m/z	intensity
32	2
39	1
41	2
43	3
44	3
51	18
52	2
55	2
57	4
60	3
65	1
69	1
71	1
73	2
74	1
76	5
77	303
78	21
79	4
83	1
85	1
89	3
90	2
91	2
97	1
102	1
103	2
104	9
105	999
106	72
107	5
115	2
116	12
117	7
118	4
119	2
120	1
121	105
122	61
123	3
129	2
131	2
144	6
145	2
146	1
147	9
192	0
206	7
207	1
224	0
232	1
237	13
238	1
247	1
248	4
249	43
250	68
251	11
265	25
266	4
369	2
370	44
371	12
372	2
