Mass Spectrum: 4H-1,2,4-Triazole-4-amine-, N-[(nitrophenyl)methylene]-
Formula: C9H7N5O2
CAS: 94458-10-3
Molecular weight: 217
m/z	intensity
33	11
36	7
37	69
38	146
39	385
40	173
41	69
42	60
43	76
44	35
46	67
48	4
50	511
51	999
53	60
54	8
55	9
56	10
57	48
58	2
60	46
62	89
63	334
65	196
66	11
67	4
69	30
70	5
71	5
73	33
74	243
75	208
77	975
79	5
80	1
81	2
82	2
84	451
85	38
87	23
89	482
90	38
92	116
93	19
94	3
95	1
96	1
97	2
98	1
99	2
100	1
102	14
103	41
104	170
105	163
106	12
107	1
108	0
109	1
110	0
111	1
112	1
113	1
116	110
117	9
118	5
120	42
121	7
122	8
123	5
124	0
125	0
126	0
127	0
128	0
129	1
130	1
132	4
133	3
135	42
136	3
137	1
138	0
139	0
140	0
141	0
142	1
143	2
145	9
146	1
148	6
150	505
151	566
152	41
153	5
154	0
156	0
157	0
158	0
159	0
160	0
162	26
163	3
164	0
165	0
166	0
167	0
168	0
169	0
170	5
171	3
172	1
173	0
175	0
176	0
177	0
179	0
180	3
181	0
182	0
184	0
185	0
187	7
188	0
190	0
191	0
195	0
199	0
200	0
201	1
202	0
203	0
211	0
212	0
213	0
216	26
217	293
218	34
219	3
220	0
