Mass Spectrum: 3.beta.,16.alpha.,22.beta.,30-Tetrahydroxy-13,28-epoxyoleanane
Formula: C30H50O5
CAS: 94450-54-1
Molecular weight: 490
m/z	intensity
105	999
159	640
189	460
203	450
207	420
233	210
282	80
405	70
417	100
423	90
441	90
454	50
472	40
490	20
