Mass Spectrum: Ethyl 3'-methylazobenzene-4-carboxylate
Formula: C16H16N2O2
CAS: 94459-56-0
Molecular weight: 268
m/z	intensity
18	1
26	1
27	9
28	7
29	32
38	2
39	30
40	2
41	10
43	1
45	2
50	22
51	17
52	5
53	3
62	3
63	17
64	8
65	175
66	9
74	3
75	28
76	64
77	20
78	4
79	2
89	17
90	11
91	999
92	83
93	13
102	1
103	146
104	102
105	12
106	3
107	2
111	2
115	3
117	1
119	276
120	25
121	70
122	6
127	1
128	2
134	1
139	1
141	2
148	1
149	438
150	44
151	7
152	37
153	6
155	1
163	1
164	2
165	28
166	13
167	24
168	4
169	1
177	53
178	6
179	1
181	2
184	4
193	1
194	1
195	24
196	4
197	1
211	1
212	1
223	80
224	12
225	1
240	2
268	529
269	98
270	13
271	1
