Mass Spectrum: 2,2,3,3-Tetraethyloxirane
Formula: C10H20O
CAS: 94459-28-6
Molecular weight: 156
m/z	intensity
26	8
27	173
28	35
29	440
30	10
31	16
37	3
39	154
40	22
41	325
42	232
43	259
44	13
45	321
46	8
50	11
51	21
52	9
53	63
54	23
55	749
56	68
57	999
58	45
59	14
60	2
63	5
65	11
66	4
67	36
68	15
69	207
70	130
71	109
72	11
73	5
74	2
75	3
76	1
77	24
78	2
79	8
80	2
81	19
82	8
83	39
84	19
85	54
86	969
87	476
88	27
89	2
91	5
93	2
94	2
95	12
96	7
97	26
98	12
99	25
100	4
107	2
109	9
110	5
111	14
112	35
113	27
114	11
115	2
123	5
124	4
125	7
126	7
127	25
128	3
137	3
138	2
139	3
140	8
141	15
155	6
156	2
