Mass Spectrum: 1-Methyl-2-ethyl-4,4-diphenyl-2-imidazolin-5-one
Formula: C18H18N2O
CAS: 94514-24-6
Molecular weight: 278
m/z	intensity
42	200
51	30
70	999
71	65
77	70
82	85
83	50
118	65
132	35
139	30
146	30
147	60
164	30
165	200
166	150
173	50
180	35
192	40
206	75
221	65
249	150
250	50
263	30
278	500
279	100
