Mass Spectrum: N,N'-Bis(2-methyl-2-nitrosopentan-4-one)
Formula: C12H22N2O4
CAS: 94514-30-4
Molecular weight: 258
m/z	intensity
15	28
18	10
27	32
28	15
29	29
30	22
39	55
40	10
41	66
42	19
43	999
44	24
51	6
53	8
55	13
56	25
57	18
58	5
72	7
83	7
99	120
100	10
130	13
131	1
