Mass Spectrum: 9-Borabicyclo[3.3.1]nonane, 9-(2-methylbutoxy)-
Formula: C13H25BO
CAS: 94537-53-8
Molecular weight: 208
m/z	intensity
28	8
29	513
30	12
31	25
37	12
38	10
39	229
40	133
41	738
42	225
43	988
44	33
45	10
50	10
51	34
52	16
53	101
54	126
55	477
56	255
57	100
58	7
59	3
63	7
64	17
65	44
66	59
67	478
68	193
69	271
70	290
71	999
72	59
74	2
77	29
78	11
79	74
80	71
81	242
82	311
83	132
84	38
85	3
86	2
89	4
90	4
91	29
92	8
93	44
94	38
95	212
96	262
97	345
98	105
99	8
105	3
107	7
108	97
109	158
110	317
111	47
112	5
115	5
119	2
120	4
121	3
122	6
123	22
124	4
125	8
126	23
131	3
136	6
137	154
138	598
139	60
140	4
152	2
153	14
154	12
167	3
196	6
207	40
208	180
209	24
