Mass Spectrum: N-Carbobenzyloxy-O-[(p-nitrophenyl)sulfonyl]-4-hydroxy-l-proline methyl ester
Formula: C20H20N2O9S
CAS: 94546-18-6
Molecular weight: 464
m/z	intensity
41	14
42	4
44	17
45	4
47	1
49	8
50	9
51	13
52	2
55	5
56	7
59	13
62	1
63	11
64	5
65	47
66	5
67	21
68	66
69	11
71	1
74	5
75	10
76	15
77	40
78	4
79	20
80	2
81	1
82	6
84	18
86	18
87	1
89	22
90	12
91	999
92	84
93	6
94	4
101	4
105	85
106	15
107	120
108	15
109	8
111	1
112	8
114	1
122	14
123	2
125	3
126	48
127	9
128	2
129	1
130	14
141	4
146	4
152	1
156	5
157	19
158	229
159	29
165	6
166	2
172	8
176	17
178	4
179	9
180	10
181	18
182	3
183	4
186	8
187	3
188	11
190	5
201	12
202	221
203	43
204	3
206	3
215	4
217	25
218	9
220	16
234	8
235	32
236	6
247	6
248	15
249	2
259	5
261	71
262	14
263	1
266	6
270	1
271	30
272	4
273	2
279	3
292	7
293	42
294	7
295	1
305	1
310	2
329	37
330	73
331	14
332	6
337	4
351	7
358	41
359	7
360	3
361	243
362	48
363	18
405	121
406	25
407	10
464	41
465	12
466	2
