Mass Spectrum: 1,12-Dodecanediol, 2TMS derivative
Formula: C18H42O2Si2
CAS: 94560-04-0
Molecular weight: 346
m/z	intensity
13	8
14	20
15	7
17	44
18	206
20	6
25	5
26	19
27	41
28	78
29	86
30	5
31	14
32	13
37	13
38	4
39	45
40	11
41	223
42	39
43	197
44	31
45	119
46	9
47	78
48	5
49	5
50	8
51	7
52	11
53	19
54	25
55	555
56	53
57	219
58	41
59	137
60	21
61	126
62	8
63	8
65	10
66	9
67	98
68	35
69	701
70	49
71	113
72	36
73	895
74	84
75	999
76	78
77	53
78	10
79	23
80	9
81	99
82	47
83	694
84	50
85	125
86	11
87	35
88	14
89	71
90	10
91	51
92	7
93	21
94	12
95	82
96	30
97	568
98	52
99	44
100	8
101	72
102	12
103	380
104	43
105	37
106	5
107	10
108	5
109	42
110	18
111	285
112	25
113	21
115	43
116	16
117	34
118	7
119	16
120	4
121	12
122	13
123	23
124	9
125	56
126	7
127	8
128	4
129	85
130	17
131	53
132	13
133	91
134	16
135	36
136	6
137	9
138	17
139	9
141	7
142	3
143	17
144	5
145	11
147	711
148	109
149	501
150	66
151	33
152	5
153	6
155	6
157	9
158	89
159	17
161	12
163	9
164	4
165	44
166	25
167	14
169	7
170	6
171	15
173	4
175	5
177	106
178	21
179	10
181	3
183	4
185	18
186	4
187	6
189	4
191	6
197	4
199	7
201	3
203	6
204	14
205	11
206	4
207	8
208	4
213	28
214	6
215	19
216	3
217	16
218	4
219	8
221	9
223	10
227	7
228	6
229	7
231	3
233	4
241	97
242	20
243	23
244	4
247	4
256	17
257	7
259	4
260	4
281	6
287	4
289	4
295	4
301	4
303	76
304	17
305	8
306	4
315	24
316	7
317	7
318	4
331	59
332	20
333	12
345	4
346	4
