Mass Spectrum: Diacetyldihydrofluoresceyl dihydroqinghaosu
Formula: C39H40O11
CAS: 94588-31-5
Molecular weight: 684
m/z	intensity
41	238
43	999
44	30
45	35
46	5
49	6
51	12
52	7
53	59
54	17
55	237
56	39
57	46
58	33
59	22
60	9
61	2
63	1
64	1
65	26
66	12
67	79
68	25
69	120
70	18
71	142
72	9
73	9
74	1
77	44
78	11
79	64
80	12
81	143
82	34
83	85
84	102
85	34
86	6
87	7
89	5
91	72
92	11
93	131
94	25
95	107
96	24
97	107
98	17
99	15
101	4
103	4
105	63
106	16
107	78
108	21
109	93
110	29
111	68
112	11
113	10
115	8
117	10
119	34
120	5
121	70
122	27
123	53
124	36
125	23
126	4
127	2
128	2
129	15
130	3
131	23
133	194
134	32
135	55
136	10
137	28
138	12
139	25
140	8
141	1
143	5
144	4
145	22
146	3
147	55
148	7
149	90
150	13
151	72
152	64
153	18
154	1
157	4
158	4
159	15
160	2
161	32
162	226
163	122
164	20
165	16
166	4
167	12
168	1
171	1
173	31
174	4
175	8
176	10
177	45
178	9
179	15
180	24
181	23
182	5
183	3
184	3
185	4
187	2
189	1
190	2
191	14
192	5
193	4
194	24
195	20
196	2
201	11
202	8
203	4
205	14
206	6
207	6
208	2
209	9
210	32
211	4
212	3
213	34
214	5
219	20
220	19
221	114
222	18
223	9
231	1
234	8
237	38
238	7
242	1
243	1
249	1
255	8
256	6
258	2
259	11
260	1
266	265
267	45
268	7
271	18
272	4
283	3
287	37
288	14
289	6
299	2
300	4
305	5
313	3
315	3
316	48
317	81
318	18
319	1
328	1
329	1
330	11
331	1
332	12
333	89
334	19
358	51
359	74
360	18
361	3
372	3
373	3
375	39
376	13
400	48
401	31
402	6
411	1
417	154
418	52
419	11
439	18
440	3
499	1
