Mass Spectrum: Cyclopropa[c,d]pentalene-1,3-dione, hexahydro-4-(2-methyl-2-propenyl)-2,2,4-trimethyl-
Formula: C15H20O2
CAS: 94609-18-4
Molecular weight: 232
m/z	intensity
26	21
27	473
28	60
29	466
30	4
31	15
37	7
38	18
39	570
40	110
41	999
42	102
43	243
45	15
50	27
51	160
52	91
53	348
54	56
55	634
56	73
57	94
58	13
59	30
60	6
62	15
63	58
64	23
65	214
66	78
67	281
68	30
69	342
70	137
71	49
72	16
73	7
74	13
75	19
76	14
77	461
78	123
79	497
80	79
81	186
82	126
83	200
84	19
85	12
86	3
89	22
91	849
92	168
93	342
94	273
95	243
96	238
97	64
98	45
102	18
103	78
104	42
105	538
106	188
107	575
108	155
109	707
110	198
111	32
112	12
113	8
115	66
116	38
117	66
118	23
119	293
120	160
121	908
122	145
123	273
124	31
125	19
126	12
127	8
128	24
129	44
130	21
131	101
132	81
133	215
134	61
135	78
136	21
137	12
138	7
139	9
140	6
141	11
142	7
143	30
144	26
145	95
146	65
147	350
148	73
149	920
150	115
151	21
152	44
153	12
155	6
156	16
157	17
158	8
159	41
160	17
161	183
162	562
163	81
164	12
165	21
167	11
169	5
170	12
171	103
172	17
173	57
174	15
175	29
176	60
177	112
178	35
179	12
183	8
185	7
186	18
187	33
188	19
189	88
190	135
191	22
192	7
199	11
204	105
205	23
217	29
218	8
232	26
233	9
