Mass Spectrum: 1,3:2,4:5,7-Trimethylene-.beta.-sedoheptitol
Formula: C10H16O7
CAS: 94625-22-6
Molecular weight: 248
m/z	intensity
41	169
42	79
43	607
44	713
45	620
46	16
47	13
50	9
51	15
52	8
53	41
54	39
55	491
56	73
57	493
58	47
59	66
60	14
61	43
63	4
65	8
67	15
68	43
69	26
70	59
71	217
72	61
73	999
74	89
75	33
77	14
78	37
79	7
81	79
82	37
83	45
84	24
85	517
86	764
87	157
88	13
89	13
91	3
95	14
96	10
97	68
98	288
99	188
100	48
101	51
102	29
103	382
104	22
105	7
106	20
107	7
109	7
111	30
112	30
113	19
114	23
115	160
116	74
117	36
123	9
124	26
125	13
126	7
127	88
128	47
129	59
130	11
131	14
133	99
134	7
140	3
141	15
142	24
143	12
144	32
145	982
146	131
147	20
154	9
157	20
158	29
159	10
170	8
171	9
173	107
174	16
175	441
176	37
177	8
187	10
188	193
189	26
200	3
217	18
218	21
219	7
231	8
247	8
