Mass Spectrum: 2,2-Difluoro-3-trifluoromethyl-3-[5',5'-bis(trifluoromethyl)-1',4',2'-dioxazolin-3'-yl]bicyclo(2.2.1)hept-5-ene
Formula: C12H6F11NO2
CAS: 94637-19-1
Molecular weight: 405
m/z	intensity
66	999
69	695
97	109
104	80
105	100
127	150
145	87
159	65
177	167
197	127
296	105
316	127
336	54
339	500
346	37
366	545
385	32
405	254
