Mass Spectrum: 3,5-Methano-2,3,4,5(1H)-tetrahydrobenzo(b)azepine
Formula: C11H13N
CAS: 94641-74-4
Molecular weight: 159
m/z	intensity
55	109
77	201
91	381
115	870
116	411
117	999
130	899
131	410
144	441
158	130
159	399
160	50
