Mass Spectrum: 3,5-Methano-2,3,4,5(1H)-tetrahydrobenzo(c)azepine-1-one
Formula: C11H11NO
CAS: 94641-48-2
Molecular weight: 173
m/z	intensity
55	206
77	97
91	181
103	111
117	236
118	999
119	450
130	254
144	206
173	705
174	153
