Mass Spectrum: 3,5-Methano-2,3,4,5(1H)-tetrahydrobenzo(c)azepine
Formula: C11H13N
CAS: 94641-45-9
Molecular weight: 159
m/z	intensity
77	74
91	148
117	159
118	999
119	92
130	191
143	46
145	81
159	350
160	56
