Mass Spectrum: 4-Propyl-1,3-oxathiane
Formula: C7H14OS
CAS: 94669-64-4
Molecular weight: 146
m/z	intensity
41	320
43	100
45	280
46	120
47	130
53	100
54	100
55	430
59	100
60	120
67	100
69	120
70	130
73	880
74	110
87	160
103	999
114	280
146	630
147	60
148	30
