Mass Spectrum: Oxacyclotridecan-2-one
Formula: C12H22O2
CAS: 947-05-7
Molecular weight: 198
m/z	intensity
26	14
27	253
28	70
29	341
30	13
31	41
33	0
37	0
38	5
39	236
40	52
41	845
42	320
43	344
44	21
45	32
47	0
48	1
50	3
51	11
52	5
53	79
54	161
55	999
56	280
57	158
58	68
59	26
60	100
61	23
62	1
63	0
65	7
66	23
67	230
68	319
69	467
70	202
71	112
72	10
73	167
74	15
75	0
77	7
78	2
79	37
80	36
81	217
82	305
83	400
84	385
85	60
86	12
87	67
88	7
91	8
92	2
93	22
94	54
95	172
96	312
97	296
98	450
99	68
100	48
101	61
102	11
104	0
105	0
106	2
107	15
108	34
109	104
110	163
111	138
112	110
113	41
114	83
115	31
116	22
117	1
119	10
120	6
121	17
122	4
123	65
124	43
125	77
126	42
127	32
128	10
129	87
130	17
131	4
133	14
134	7
135	3
136	58
137	56
138	126
139	37
140	6
141	11
142	2
143	2
147	1
149	3
150	1
151	40
152	30
153	6
154	1
155	23
156	4
162	45
163	4
165	1
168	7
169	8
170	1
180	51
181	4
198	22
199	0
