Mass Spectrum: 5.alpha.-Cholestane-3.beta.,6.alpha.,8.beta.,15.alpha.,16.beta.,26-hexaol
Formula: C27H48O6
CAS: 94799-81-2
Molecular weight: 468
m/z	intensity
95	999
207	340
225	630
249	120
251	140
267	120
278	70
279	70
285	200
303	270
304	120
313	60
321	160
331	130
352	40
368	30
386	30
396	50
399	80
414	120
417	100
432	120
435	40
450	140
468	4
