Mass Spectrum: Pterin-6-carboxylic acid
Formula: C7H5N5O3
CAS: 948-60-7
Molecular weight: 207
m/z	intensity
41	226
42	127
43	343
44	999
45	297
46	27
47	15
48	8
49	65
50	32
51	43
52	70
53	74
54	41
55	139
56	90
57	151
58	31
59	27
60	104
61	33
63	9
64	31
65	42
66	58
67	70
68	66
69	232
70	66
71	78
72	18
73	98
74	32
75	20
76	15
77	59
78	31
79	31
80	20
81	55
82	36
83	60
84	36
85	61
86	41
87	29
89	14
91	64
92	30
93	71
94	44
95	39
96	34
97	50
98	33
99	23
100	26
101	10
102	5
103	4
104	23
105	85
106	25
107	25
108	33
109	50
110	24
111	29
112	17
113	30
114	20
115	21
118	8
119	39
120	48
121	46
122	76
123	19
124	22
125	13
126	28
127	11
128	5
129	26
131	57
132	4
133	16
134	9
135	48
136	44
137	14
138	9
139	8
141	4
143	7
144	5
145	14
146	4
147	4
148	8
149	88
150	28
151	5
152	4
161	10
163	185
164	35
167	12
169	15
177	33
178	4
179	7
189	9
191	4
207	36
208	5
