Mass Spectrum: 1,3,5,6-Heptanetetrol, 2-methyl-, tetraacetate
Formula: C16H26O8
CAS: 94818-94-7
Molecular weight: 346
m/z	intensity
25	1
26	5
27	10
29	16
30	1
31	9
33	1
34	0
35	0
36	0
37	1
38	2
39	12
40	3
41	32
42	16
43	999
44	27
45	16
46	0
47	1
48	1
49	2
50	10
52	35
53	10
54	12
55	38
56	14
57	52
58	12
59	5
60	12
61	38
62	1
63	0
64	0
65	2
66	1
67	11
68	27
69	70
70	14
71	47
73	10
74	4
75	3
76	1
77	3
78	8
79	71
80	27
81	27
82	14
83	259
84	34
85	11
86	6
87	27
88	6
89	1
90	0
91	4
92	1
93	4
94	8
95	21
96	12
97	229
98	100
99	28
100	15
101	26
102	2
103	44
104	2
105	1
106	4
107	12
108	2
109	24
110	6
111	24
112	20
113	29
114	18
115	24
116	5
117	28
118	2
119	0
120	0
121	3
122	2
123	19
124	96
125	39
126	8
127	11
128	4
129	29
130	4
131	20
132	1
133	1
134	0
135	0
136	0
137	0
138	0
139	71
140	29
141	14
142	7
143	77
144	8
145	11
146	0
147	0
148	0
149	1
150	0
151	0
152	0
153	1
154	8
155	4
156	1
157	168
158	21
159	18
160	1
161	0
162	0
163	0
164	0
165	0
166	21
167	5
168	1
169	3
170	1
171	2
172	0
173	14
174	1
175	0
176	0
177	0
178	0
179	0
180	0
181	0
182	1
183	3
184	15
185	14
186	1
187	3
188	0
189	0
190	0
191	0
192	0
193	0
194	0
195	0
196	0
197	0
198	0
199	5
200	7
201	3
202	0
203	2
204	0
205	0
206	0
207	0
208	0
209	0
210	0
211	0
212	0
213	0
214	0
215	0
216	0
217	6
218	0
219	0
220	0
222	0
223	0
224	0
225	0
226	1
227	2
228	0
229	4
230	0
231	0
232	0
237	0
238	0
239	0
240	0
241	1
242	0
243	1
244	2
245	37
246	5
247	0
248	0
259	78
260	14
261	2
262	0
263	0
268	0
273	0
286	0
287	1
288	0
289	0
301	0
302	0
315	0
316	0
