Mass Spectrum: 2-Iodoethyl stearate
Formula: C20H39IO2
CAS: 94874-65-4
Molecular weight: 438
m/z	intensity
41	340
42	100
43	999
44	65
45	25
53	25
54	30
55	420
56	110
57	604
58	45
60	60
67	70
68	30
69	275
70	55
71	285
73	70
81	85
82	20
83	210
84	35
85	170
86	50
87	30
95	75
97	130
98	40
99	100
101	20
107	25
109	45
111	95
113	30
115	30
123	25
125	55
129	40
135	35
139	30
141	25
143	30
153	45
154	485
155	759
157	25
167	30
169	20
185	20
214	65
265	60
267	25
283	75
309	45
310	35
311	584
312	205
313	30
