Mass Spectrum: 1,3-Bis(2-cyanoethyl)-2,5-dioxo-4,4-diphenylimidazolidine
Formula: C21H18N4O2
CAS: 94872-28-3
Molecular weight: 358
m/z	intensity
26	15
27	18
28	42
29	1
38	2
39	17
40	5
41	6
42	3
43	4
44	4
50	15
51	81
52	31
53	25
54	54
55	13
56	29
57	4
62	5
63	18
64	4
65	32
66	4
67	2
68	3
69	15
70	26
71	3
74	6
75	11
76	37
77	244
78	24
79	3
80	1
81	16
82	71
83	45
84	4
85	1
86	2
87	6
88	6
89	26
90	31
91	999
92	78
93	4
94	1
95	9
96	55
97	31
98	2
99	2
100	1
101	3
102	11
103	53
104	302
105	75
106	8
107	1
108	4
109	1
110	5
111	3
112	1
113	8
114	4
115	21
116	29
117	20
118	4
119	2
120	1
122	8
123	1
125	2
126	8
127	9
128	9
129	6
130	37
131	6
132	3
133	3
137	3
138	3
139	29
140	7
141	2
143	2
144	73
145	11
146	2
147	2
149	1
150	4
151	9
152	22
153	9
154	4
155	9
156	7
157	300
158	34
159	3
161	1
162	3
163	32
164	45
165	372
166	119
167	20
168	2
173	2
175	1
176	3
177	6
178	10
179	9
180	50
181	15
182	2
183	2
185	6
186	1
187	9
188	2
189	3
190	5
191	5
192	39
193	89
194	658
195	106
196	8
200	3
201	1
202	2
203	1
204	4
205	41
206	26
207	11
208	49
209	228
210	38
211	3
213	1
217	1
218	1
219	5
220	58
221	59
222	148
223	34
224	4
227	1
228	4
229	2
230	1
231	2
232	3
233	79
234	50
235	17
236	5
237	3
238	1
240	709
241	112
242	21
243	3
245	1
246	1
247	1
248	1
249	6
250	1
251	2
252	9
253	49
254	10
255	2
259	1
260	1
261	61
262	212
263	41
264	6
265	30
266	6
274	1
275	3
276	23
277	6
278	1
279	2
281	492
282	87
283	5
286	1
288	8
289	4
290	22
291	5
292	1
293	1
302	2
303	1
304	3
305	26
306	6
307	1
316	2
318	888
319	194
320	24
321	2
329	35
330	8
331	27
332	7
334	2
357	1
358	400
359	101
360	13
361	1
