Mass Spectrum: (1-Methoxy-pentyl)-cyclopropane
Formula: C9H18O
CAS: 94883-96-2
Molecular weight: 142
m/z	intensity
41	58
45	39
53	39
55	129
69	40
71	59
85	999
86	120
