Mass Spectrum: (1-Propoxy-pentyl)-cyclopropane
Formula: C11H22O
CAS: 94883-97-3
Molecular weight: 170
m/z	intensity
41	128
43	227
55	78
57	58
69	181
71	920
72	40
99	20
113	999
114	99
170	9
