Mass Spectrum: 2-Propenoic acid, 2-methyl-3-(4-nitrophenyl)-
Formula: C10H9NO4
CAS: 949-98-4
Molecular weight: 207
m/z	intensity
27	60
28	100
29	20
30	80
31	20
37	20
38	40
39	220
40	20
41	30
43	100
44	40
45	100
46	20
50	150
51	180
52	40
53	40
55	90
56	50
57	40
58	20
61	30
62	110
63	260
64	50
65	170
66	30
67	20
69	20
71	20
74	80
75	100
76	70
77	270
78	90
79	170
80	20
83	20
85	40
86	40
87	60
88	50
89	210
90	50
91	140
92	20
93	30
94	20
101	20
102	50
103	190
104	50
105	160
106	40
107	40
109	20
110	20
113	40
114	80
115	999
116	520
117	110
118	30
121	20
130	20
131	130
132	70
133	40
135	20
142	20
143	70
144	40
145	40
146	20
149	20
152	60
159	20
160	240
161	470
162	90
163	10
174	30
177	40
189	30
190	310
191	70
192	30
206	140
207	960
208	120
209	10
