Mass Spectrum: L-Tyrosine ethyl ester
Formula: C11H15NO3
CAS: 949-67-7
Molecular weight: 209
m/z	intensity
14	1
15	9
16	1
17	5
18	12
26	8
27	47
28	117
29	69
30	24
31	9
32	4
37	1
38	4
39	40
40	5
41	10
42	24
43	36
44	8
45	6
46	54
47	11
50	9
51	30
52	16
53	27
54	6
55	13
56	7
57	30
58	10
59	6
61	1
62	5
63	14
64	4
65	32
66	8
67	16
68	45
69	1
70	1
71	1
73	2
74	501
75	30
76	5
77	95
78	25
79	25
80	16
81	10
82	2
83	1
84	2
89	9
90	9
91	165
92	15
93	5
94	13
95	3
97	1
101	2
102	711
103	212
104	15
105	6
106	26
107	999
108	548
109	48
110	3
116	3
117	9
118	20
119	47
120	20
121	3
130	5
131	1
132	2
133	9
134	23
135	72
136	707
137	65
138	4
147	8
148	2
149	2
162	1
163	2
164	4
179	1
192	16
193	2
207	3
209	104
210	13
211	2
