Mass Spectrum: 4-Piperidinone, 1-(phenylmethyl)-, oxime
Formula: C12H16N2O
CAS: 949-69-9
Molecular weight: 204
m/z	intensity
37	2
38	2
39	26
40	6
41	32
42	74
43	9
44	2
45	1
46	4
50	5
51	15
52	7
53	8
54	19
55	10
56	56
57	13
58	5
59	0
62	2
63	12
65	113
66	6
67	6
68	17
69	13
70	9
71	2
72	2
73	2
74	3
75	1
76	2
77	11
78	7
79	3
80	3
81	4
82	16
83	6
84	22
85	11
86	9
87	2
89	24
91	999
92	148
93	17
94	3
95	48
96	22
97	20
98	21
99	2
102	8
103	6
104	17
105	16
106	3
107	1
108	0
109	3
110	6
111	4
113	229
114	15
115	5
116	4
117	12
118	51
119	10
120	73
121	6
125	2
127	158
128	13
129	7
130	9
131	7
132	16
133	5
134	1
135	0
141	1
142	1
143	4
144	8
145	7
146	39
147	6
148	2
149	2
150	2
156	4
157	3
158	22
159	6
160	4
161	0
162	0
164	2
170	4
171	5
172	9
173	4
174	7
175	2
177	1
185	11
187	130
188	36
189	9
190	1
191	1
201	2
203	132
204	389
205	56
206	6
207	0
