Mass Spectrum: 3Beta-acetoxy-5-formyloxy-7-oxo-6-oxa-5xi-androstan-17-one
Formula: C21H28O7
CAS: 94963-36-7
Molecular weight: 392
m/z	intensity
12	1
13	4
14	24
15	35
16	5
17	13
18	22
25	1
26	2
27	28
28	28
29	36
30	1
31	4
38	2
39	43
40	16
41	129
42	94
43	525
44	20
45	143
46	2
50	4
51	15
52	9
53	67
54	11
55	123
56	9
57	14
58	3
59	3
60	154
61	8
62	2
63	7
64	5
65	38
66	14
67	85
68	209
69	78
70	7
71	12
72	3
73	3
74	4
75	4
76	5
77	97
78	32
79	179
80	58
81	210
82	42
83	23
84	8
85	9
86	5
87	6
88	3
89	9
90	6
91	183
92	52
93	207
94	79
95	118
96	26
97	54
98	9
99	7
100	4
101	11
102	5
103	14
104	11
105	167
106	74
107	256
108	302
109	587
110	999
111	112
112	16
113	6
114	5
115	29
116	12
117	50
118	24
119	71
120	54
121	182
122	55
123	65
124	14
125	10
126	10
127	13
128	20
129	24
130	22
131	124
132	55
133	100
134	44
135	139
136	74
137	197
138	150
139	25
140	8
141	11
142	10
143	18
144	11
145	33
146	18
147	68
148	85
149	376
150	154
151	50
152	51
153	32
154	12
155	10
156	9
157	22
158	17
159	46
160	24
161	33
162	23
163	21
164	10
165	20
166	30
167	45
168	9
169	9
170	27
171	18
172	29
173	37
174	16
175	37
176	62
177	392
178	93
179	23
180	13
181	9
182	6
183	12
184	7
185	14
186	8
187	20
188	11
189	25
190	41
191	29
192	10
193	12
194	11
195	17
196	9
197	14
198	10
199	14
200	10
201	28
202	26
203	20
204	89
205	41
206	11
207	11
208	9
209	35
210	11
211	9
212	12
213	16
214	24
215	40
216	26
217	39
218	23
219	38
220	10
221	9
222	12
223	7
224	8
225	12
226	8
227	7
228	7
229	19
230	41
231	40
232	30
233	13
234	8
235	11
236	5
237	3
238	1
239	9
240	14
241	9
242	18
243	35
244	12
245	7
246	5
247	6
248	9
249	4
250	32
251	8
252	3
253	7
254	2
255	1
256	2
257	11
258	111
259	36
260	14
261	6
262	2
263	1
266	1
267	2
268	24
269	9
270	5
271	31
272	7
273	1
274	1
275	6
276	15
277	4
278	1
284	1
285	6
286	848
287	286
288	55
289	9
290	1
300	1
302	3
303	12
304	70
305	14
306	2
318	8
319	2
320	1
321	1
322	1
328	2
331	2
336	1
346	49
347	10
348	2
363	1
364	5
365	1
