Mass Spectrum: 1H-Imidazole-1-ethanol, 2-heptadecyl-4,5-dihydro-
Formula: C22H44N2O
CAS: 95-19-2
Molecular weight: 352
m/z	intensity
41	392
42	149
43	613
44	448
45	67
46	3
49	1
50	5
51	8
52	6
53	17
54	53
55	325
56	582
57	227
58	55
59	19
60	8
61	2
62	18
63	1
65	3
66	2
67	36
68	30
69	140
70	64
71	60
72	29
73	155
74	999
75	42
76	9
77	10
78	19
79	9
80	5
81	22
82	33
83	87
84	926
85	156
86	70
87	770
88	120
89	6
91	2
93	4
94	3
95	18
96	18
97	78
98	131
99	26
100	13
101	3
102	6
103	9
104	1
105	6
106	0
107	2
108	3
109	18
110	12
111	38
112	17
113	41
114	8
115	4
116	3
117	17
118	2
119	0
120	1
121	3
122	2
123	18
124	7
125	55
126	18
128	433
129	38
130	15
131	2
132	0
134	0
135	2
136	0
137	7
138	3
139	15
141	267
142	37
143	3
144	3
146	32
147	2
151	6
152	2
153	8
154	11
155	44
156	8
157	2
159	16
160	2
165	3
166	1
167	6
168	5
169	32
170	7
171	0
172	0
173	3
179	2
181	6
183	91
184	12
185	0
187	1
193	2
194	0
195	4
196	1
197	33
198	5
201	2
207	1
209	2
211	22
212	3
215	1
221	0
223	2
224	1
225	15
226	3
228	1
229	1
237	2
239	20
240	3
243	0
251	2
253	15
254	5
256	8
257	2
265	2
267	12
268	7
269	2
270	1
271	0
279	2
280	7
281	10
282	19
283	7
284	5
285	1
293	5
294	1
295	9
296	3
297	2
298	0
299	1
300	3
307	6
308	8
309	9
310	12
311	3
312	0
313	0
315	0
321	4
323	22
324	19
325	1
326	0
327	0
328	0
335	2
337	6
339	2
340	0
341	0
343	0
344	0
349	2
351	12
352	17
353	5
354	2
355	0
