Mass Spectrum: N,N-Diisopropylbenzothiazole-2-sulfenamide
Formula: C13H18N2S2
CAS: 95-29-4
Molecular weight: 266
m/z	intensity
15	15
26	3
27	57
28	11
29	4
30	18
32	4
34	1
37	3
38	7
39	39
40	6
41	93
42	166
43	139
44	175
45	21
46	2
47	3
48	9
50	8
51	9
52	4
54	6
55	2
56	41
57	16
58	262
59	10
60	4
61	3
62	6
63	23
64	19
65	6
66	1
67	2
68	5
69	42
70	68
71	7
72	1
73	8
74	10
75	9
76	6
77	4
78	5
81	6
82	17
83	3
84	211
85	29
86	93
87	6
88	4
89	2
90	32
91	15
92	3
93	3
94	2
95	7
96	9
97	1
98	11
99	19
100	999
101	82
102	14
103	5
105	1
106	2
107	5
108	96
109	22
110	6
111	1
116	3
118	1
120	1
121	3
122	30
123	9
124	4
132	7
133	5
134	5
135	93
136	23
137	7
138	2
139	5
140	6
141	2
148	99
149	19
150	14
151	2
154	5
162	4
165	3
166	117
167	604
168	104
169	62
170	9
171	2
175	4
176	10
177	2
180	3
181	4
182	70
183	8
184	7
190	3
192	6
193	9
194	3
195	1
203	3
208	2
209	74
210	9
211	8
217	1
218	9
219	1
223	4
251	25
252	4
253	2
266	30
267	5
268	4
