Mass Spectrum: Diamthazole
Formula: C15H23N3OS
CAS: 95-27-2
Molecular weight: 293
m/z	intensity
15	3
18	3
26	1
27	9
28	22
29	34
30	49
31	1
38	1
39	3
40	1
41	7
42	57
43	8
44	97
45	8
46	1
47	1
50	1
51	3
52	2
53	2
54	5
55	5
56	56
57	22
58	63
59	2
62	2
63	15
64	2
65	2
66	2
67	1
68	2
69	8
70	18
71	12
72	45
73	4
74	1
75	2
76	2
77	2
78	1
79	2
80	4
81	2
82	4
83	3
84	13
86	999
87	58
88	7
89	1
90	3
91	2
92	1
93	4
94	3
95	10
96	4
97	9
98	5
100	661
101	47
102	2
103	1
104	2
105	1
106	2
107	6
108	3
109	16
110	3
111	2
116	1
117	1
118	1
119	1
120	2
121	6
122	8
123	4
124	11
125	3
126	1
131	1
132	1
133	5
134	6
135	12
136	10
137	2
138	1
139	3
144	1
147	2
148	11
149	5
150	9
151	5
152	12
153	1
154	1
161	2
162	9
163	3
164	6
165	12
166	2
167	1
175	1
176	1
177	10
178	5
179	12
180	2
191	4
193	47
194	9
195	3
205	3
206	2
207	3
208	1
219	1
220	2
221	2
234	1
235	1
246	1
249	1
260	1
276	1
278	1
290	1
291	1
292	1
293	38
294	7
295	2
