Mass Spectrum: Diethyldithiocarbamic acid 2-benzothiazolyl ester
Formula: C12H14N2S3
CAS: 95-30-7
Molecular weight: 282
m/z	intensity
14	1
15	9
25	1
26	12
27	121
28	57
29	255
30	10
32	5
33	1
34	1
35	1
37	7
38	13
39	43
40	5
41	9
42	30
43	3
44	62
45	56
46	4
47	3
49	2
50	22
51	21
52	9
53	1
54	9
55	4
56	36
57	9
58	22
59	43
60	476
61	22
62	27
63	55
64	23
65	11
66	1
67	2
68	1
69	76
70	18
71	9
72	26
73	5
74	10
75	19
76	15
77	12
78	11
79	1
80	1
81	11
82	35
83	7
84	8
85	2
86	89
87	15
88	797
89	38
90	64
91	14
92	2
93	8
94	6
95	16
96	17
97	2
98	1
100	2
102	29
103	8
104	2
105	2
106	4
107	11
108	114
109	26
110	8
111	1
114	21
115	8
116	999
117	77
118	46
119	4
120	3
121	5
122	49
123	11
124	4
133	10
134	30
135	21
136	9
137	2
139	7
140	9
141	3
142	1
146	3
147	2
148	9
149	3
150	2
154	2
160	1
161	2
162	6
163	4
165	3
166	71
167	57
168	21
169	6
170	1
175	1
177	1
178	3
179	3
180	3
192	2
193	2
194	8
195	18
196	3
197	2
198	7
199	1
200	1
210	4
211	2
212	1
225	1
249	7
250	2
251	1
253	9
254	1
255	1
282	123
283	19
284	17
285	3
286	1
