Mass Spectrum: 2-Benzothiazolesulfenamide, N-cyclohexyl-
Formula: C13H16N2S2
CAS: 95-33-0
Molecular weight: 264
m/z	intensity
15	4
17	4
18	21
26	2
27	30
28	47
29	35
30	28
32	1
34	1
37	2
38	5
39	42
40	5
41	116
42	19
43	40
44	10
45	16
46	2
47	3
50	6
51	9
52	5
53	12
54	21
55	127
56	119
57	6
58	8
59	2
60	2
61	2
62	6
63	19
64	9
65	9
66	2
67	9
68	10
69	43
70	22
71	3
72	2
73	2
74	3
75	7
76	6
77	6
78	6
79	8
80	3
81	25
82	16
83	18
84	3
86	3
87	1
88	3
90	11
91	13
92	3
93	2
94	2
95	6
96	20
97	13
98	999
99	83
100	3
102	17
103	7
104	1
105	2
106	1
107	4
108	82
109	25
110	7
111	1
112	1
117	1
118	7
120	1
121	3
122	32
123	16
124	8
125	1
127	2
128	1
129	10
130	3
133	6
134	6
135	29
136	31
137	5
138	2
139	6
140	9
141	2
142	1
148	8
149	64
150	34
151	7
152	2
154	13
155	4
156	2
161	1
162	31
163	8
164	3
165	3
166	87
167	531
168	114
169	55
170	9
171	2
174	1
175	10
176	6
177	2
180	3
181	29
182	120
183	14
184	11
185	1
187	1
188	3
189	3
190	1
192	3
193	5
194	6
195	4
196	1
202	3
203	2
204	7
205	6
206	2
207	1
208	3
209	1
214	2
216	2
218	2
219	5
220	1
221	67
222	9
223	7
229	5
230	1
231	16
232	4
233	1
235	2
262	0
263	3
264	119
265	20
266	11
267	2
268	1
