Mass Spectrum: Phenol, 2-methyl-
Formula: C7H8O
CAS: 95-48-7
Molecular weight: 108
m/z	intensity
14	1
15	3
17	1
18	3
25	2
26	14
27	62
28	9
29	10
30	1
31	3
36	2
37	16
38	31
39	108
40	17
41	9
42	3
43	11
44	3
45	2
48	1
49	9
50	53
51	96
52	48
53	67
54	35
55	18
56	1
57	1
58	1
59	1
60	2
61	9
62	18
63	42
64	14
65	25
66	15
67	5
68	8
69	3
73	4
74	13
75	9
76	6
77	220
78	64
79	253
80	102
81	14
82	4
84	1
85	2
86	4
87	2
88	2
89	83
90	207
91	62
92	6
93	1
105	7
106	5
107	673
108	999
109	79
110	5
