Mass Spectrum: 2-Hydrazino-4-(1,1-ethylenedioxyethyl)tropone
Formula: C11H14N2O3
CAS: 95028-31-2
Molecular weight: 222
m/z	intensity
15	9
17	4
26	3
27	10
28	16
29	8
30	3
31	3
37	2
38	9
39	35
40	4
41	6
42	7
43	409
44	10
45	12
46	1
50	14
51	36
52	14
53	15
54	4
55	5
56	1
58	2
59	1
61	2
62	9
63	48
64	29
65	37
66	8
67	3
68	2
69	1
73	7
74	5
75	7
76	10
77	38
78	18
79	12
80	14
81	4
82	1
86	2
87	999
88	50
89	18
90	39
91	38
92	25
93	12
94	4
95	2
99	2
100	10
101	2
102	5
103	9
104	12
105	38
106	11
107	20
108	8
109	2
110	1
115	2
116	8
117	9
118	18
119	17
120	13
121	25
122	4
123	2
130	1
131	5
132	6
133	11
134	12
135	35
136	22
137	5
144	4
145	1
146	4
147	8
148	4
149	15
150	9
151	3
152	1
160	1
161	2
162	9
163	20
164	7
165	19
166	2
167	1
175	1
176	1
177	20
178	15
179	74
180	9
181	1
182	1
190	1
191	6
192	9
193	2
195	1
206	2
207	118
208	13
209	1
221	2
222	683
223	90
224	9
225	2
