Mass Spectrum: 9-Imino-12-phenyl-10,11-dioxa-tricyclo[6.2.2.01,6]dodecane-7,7,8-tricarbonitrile
Formula: C19H16N4O2
CAS: 95059-26-0
Molecular weight: 332
m/z	intensity
33	0
34	1
36	1
37	4
38	12
39	64
40	35
41	140
42	82
43	24
44	16
45	6
46	0
48	0
50	29
51	71
52	38
53	20
54	13
55	74
56	9
57	5
58	0
59	0
60	0
61	2
62	6
63	18
64	13
65	17
66	12
67	23
68	10
69	58
70	33
71	2
72	0
73	1
74	7
75	10
76	23
77	153
78	44
79	154
80	32
81	9
82	2
83	18
84	2
85	1
86	1
87	2
88	6
89	28
90	18
91	20
92	10
93	4
94	2
95	5
96	7
97	52
98	132
99	11
100	5
101	8
102	10
103	25
104	17
105	116
106	98
107	999
108	72
109	6
110	1
111	0
112	1
113	2
114	4
115	9
116	14
117	8
118	5
119	1
120	1
121	1
122	2
123	1
124	0
125	1
126	4
127	21
128	13
129	9
130	10
131	5
132	2
133	4
134	3
135	1
136	0
137	0
138	2
139	3
140	6
141	4
142	3
143	8
144	8
145	3
146	2
147	0
148	0
149	1
150	0
151	2
152	4
153	6
154	21
155	10
156	5
157	5
158	2
159	1
160	1
161	3
162	2
163	9
164	4
165	9
166	7
167	3
168	3
169	1
170	7
171	4
172	8
173	1
174	0
175	0
176	0
177	1
178	3
179	2
180	2
181	3
182	5
183	3
184	6
185	1
186	0
187	0
189	0
190	0
191	3
192	10
193	6
194	2
195	1
196	1
197	4
198	10
199	12
200	2
201	0
202	0
203	0
204	1
205	3
206	2
207	1
208	1
209	1
210	1
211	0
217	1
218	3
219	2
220	1
221	1
222	0
223	0
224	1
225	3
226	29
227	4
228	0
230	0
231	0
232	1
233	2
234	1
235	1
236	0
237	0
243	0
244	0
245	0
246	1
247	0
248	0
260	2
261	2
262	1
263	0
264	0
288	1
289	1
330	0
332	11
333	2
