Mass Spectrum: Uridine, 2'-deoxy-
Formula: C9H12N2O5
CAS: 951-78-0
Molecular weight: 228
m/z	intensity
31	65
32	113
38	17
39	60
40	141
41	182
42	245
43	238
44	81
45	192
46	15
47	15
51	12
52	22
53	58
54	60
55	70
56	32
57	58
58	25
59	17
60	17
61	7
67	30
68	119
69	283
70	124
71	103
72	17
73	303
74	22
75	17
76	10
79	7
80	17
81	86
82	30
83	20
84	17
85	30
86	15
87	22
94	12
95	17
96	159
97	98
98	136
99	116
100	25
108	17
109	5
110	12
111	12
112	470
113	156
114	30
115	7
116	20
117	999
119	101
120	20
136	45
137	12
138	2
139	50
140	20
141	7
154	17
155	12
167	17
168	30
169	17
179	12
197	12
198	20
199	10
210	12
211	17
227	17
228	35
229	17
