Mass Spectrum: Methyl 3-hydroxy-5-etiocholenate
Formula: C21H32O3
CAS: 95119-09-8
Molecular weight: 332
m/z	intensity
41	835
42	52
43	553
44	125
45	79
51	52
53	315
55	999
57	360
59	447
61	15
65	129
66	42
67	453
68	90
69	207
71	81
77	411
78	74
79	879
80	88
81	527
82	68
83	79
85	57
87	241
91	764
92	125
93	553
94	144
95	303
96	47
97	104
100	57
101	15
103	71
104	36
105	701
106	196
107	681
108	167
109	174
110	15
111	27
115	146
116	42
117	248
118	88
119	283
120	196
121	277
122	80
123	93
124	121
125	119
127	73
128	70
129	111
130	66
131	251
132	97
133	391
134	130
135	140
136	60
137	34
141	74
142	55
143	168
144	75
145	344
146	59
147	204
148	71
149	61
152	32
153	66
155	33
157	112
158	60
159	210
160	124
161	546
162	102
163	64
165	17
166	15
169	56
171	107
173	104
174	15
175	63
177	19
179	20
183	58
185	78
187	108
189	190
191	39
193	86
195	14
197	72
199	63
201	17
206	48
207	15
209	33
211	52
213	125
215	78
220	98
221	240
222	35
225	33
227	15
231	36
239	191
240	14
241	15
243	17
246	31
247	286
248	39
249	33
255	56
257	71
267	88
272	65
273	50
275	36
285	58
286	16
297	15
299	191
300	61
301	70
313	14
314	305
315	98
317	103
330	58
331	27
332	391
333	108
