Mass Spectrum: Testoster-3,11-dione, 9-methylthio-
Formula: C22H30O4S
CAS: 95171-93-0
Molecular weight: 390
m/z	intensity
41	146
43	999
44	8
45	26
46	5
47	22
48	10
49	11
51	13
52	6
53	56
55	176
56	8
57	14
59	7
61	30
65	38
66	12
67	73
68	8
69	43
71	23
73	8
75	14
77	106
78	25
79	109
80	18
81	61
82	7
83	15
84	9
85	12
86	6
87	11
88	5
89	6
91	178
92	23
93	104
94	25
95	78
96	9
97	28
99	11
101	6
103	31
104	14
105	110
106	19
107	54
108	14
109	24
110	7
111	20
113	10
114	17
115	65
116	27
117	74
118	24
119	61
120	18
121	94
122	91
123	39
124	10
125	9
127	19
128	41
129	44
130	17
131	81
132	25
133	79
134	21
135	49
136	58
137	24
138	5
139	15
141	29
142	19
143	39
144	19
145	53
146	23
147	84
148	24
149	28
150	7
151	20
152	10
153	33
154	11
155	25
156	12
157	27
158	15
159	50
160	40
161	113
162	47
163	22
164	7
165	31
166	17
167	26
168	11
169	22
170	12
171	29
172	13
173	43
174	26
175	20
176	6
177	12
178	7
179	34
180	10
181	23
182	9
183	21
184	12
185	30
186	16
187	46
188	68
189	47
190	8
191	16
192	5
193	30
194	11
195	51
196	25
197	35
198	15
199	26
200	8
201	10
202	5
203	6
205	7
206	29
207	35
208	19
209	21
210	11
211	31
212	23
213	40
214	10
215	9
219	11
221	18
222	10
223	33
224	11
225	33
226	115
227	52
228	11
229	7
231	6
235	6
236	9
237	21
238	30
239	56
240	28
241	60
242	13
243	6
245	6
249	10
253	15
254	100
255	52
256	15
257	13
258	6
259	9
264	9
265	24
266	8
267	28
268	30
269	24
270	6
271	9
272	36
273	15
281	8
282	25
283	61
284	14
285	10
287	27
288	6
289	7
298	12
299	17
300	44
301	66
302	69
303	13
305	15
314	163
315	50
316	73
317	15
319	8
325	6
326	12
327	12
328	6
329	8
330	5
339	5
342	243
343	819
344	112
345	662
346	18
347	15
362	15
372	16
390	97
391	35
392	11
