Mass Spectrum: 1,2-Di(2-pyridyl)ethanedione N,N'-dioxide
Formula: C12H8N2O4
CAS: 95195-44-1
Molecular weight: 244
m/z	intensity
12	1
16	4
17	2
25	2
26	18
27	57
28	118
29	3
30	3
37	8
38	22
39	67
40	9
41	6
42	2
44	165
45	3
47	1
49	6
50	45
51	233
52	125
53	15
54	1
61	3
62	9
63	28
64	9
65	5
66	8
67	12
68	4
69	1
74	2
75	7
76	13
77	16
78	999
79	174
80	9
89	3
90	4
91	2
92	3
93	2
94	2
95	35
96	2
101	2
102	4
103	6
104	8
105	3
106	132
107	9
111	2
115	1
116	3
117	7
118	11
119	1
122	33
123	3
127	1
128	24
129	41
130	23
131	3
140	1
141	2
142	1
143	5
144	10
145	2
153	1
154	2
155	79
156	138
157	16
158	1
168	3
169	3
170	1
171	9
172	6
179	2
180	4
181	1
183	4
184	24
185	3
199	2
200	1
212	9
213	1
216	1
245	1
