Mass Spectrum: 2-Nonenoic acid, 9-(dimethylamino)-7-hydroxy-2,4,6-trimethyl-9-oxo-, [4S-(2E,4R*,6S*,7S*)]-
Formula: C14H25NO4
CAS: 95209-55-5
Molecular weight: 271
m/z	intensity
26	3
27	40
28	11
29	54
30	35
31	12
35	2
36	3
38	2
39	49
40	14
41	148
42	65
43	216
44	231
45	325
46	245
47	7
48	2
49	30
50	2
51	10
52	4
53	41
54	11
55	77
56	18
57	46
58	33
59	10
60	19
65	15
66	8
67	81
68	19
69	87
70	24
71	39
72	894
73	64
74	35
75	2
77	14
78	3
79	21
80	6
81	36
82	18
83	17
84	33
85	14
86	14
87	437
88	53
89	4
91	11
92	2
93	14
94	4
95	42
96	34
97	17
98	24
99	12
100	19
101	7
102	2
105	8
106	2
107	19
108	8
109	32
110	7
111	19
112	12
113	31
114	54
115	13
116	999
117	90
118	9
119	9
120	6
121	37
122	8
123	12
124	9
125	12
126	21
127	54
128	55
129	10
130	27
131	4
133	4
134	5
135	28
136	6
137	9
138	13
139	11
140	46
141	17
142	14
143	123
144	26
145	8
147	7
148	10
149	13
150	3
151	4
152	3
153	4
154	8
155	5
156	258
157	30
158	19
159	2
161	3
162	18
163	16
164	7
165	6
166	6
167	7
168	10
169	7
170	17
171	3
175	7
178	6
179	4
180	49
181	11
182	8
183	5
184	4
185	2
186	4
190	20
191	8
192	29
193	6
194	3
198	11
200	5
206	12
207	51
208	18
209	8
210	4
211	1
220	3
224	3
225	14
226	4
227	1
235	25
236	6
238	4
252	1
253	19
254	6
255	1
256	1
271	28
272	12
273	2
