Mass Spectrum: Pyrimidine, tetrakis[(trimethylsilyl)oxy]-
Formula: C16H36N2O4Si4
CAS: 95237-78-8
Molecular weight: 432
m/z	intensity
26	2
27	7
28	69
29	4
31	2
32	16
33	0
36	0
37	0
39	0
41	1
42	3
43	19
44	21
45	150
46	11
47	26
48	2
49	12
50	0
52	1
53	2
54	0
55	6
57	9
58	10
59	16
61	3
62	3
63	2
68	1
69	0
70	4
71	3
72	27
73	999
74	95
75	45
76	4
77	87
78	9
79	2
80	1
81	2
83	2
84	6
85	5
86	5
87	2
88	0
91	0
92	4
93	1
96	1
97	2
99	2
100	27
101	7
102	2
103	3
104	2
105	3
109	0
111	0
113	1
115	5
116	2
117	9
119	5
121	0
122	0
124	1
126	1
127	1
128	2
129	3
130	3
131	54
132	8
133	30
134	3
135	1
139	0
142	1
143	0
144	4
145	3
147	132
148	22
149	10
150	1
154	1
157	3
158	46
159	7
160	3
161	1
164	0
170	0
172	7
173	3
174	19
175	4
176	2
181	1
182	1
184	2
185	1
186	3
188	6
189	1
190	1
191	1
193	0
198	1
200	0
201	0
204	0
207	3
212	2
214	1
216	1
221	2
228	1
232	2
244	0
248	0
252	0
253	3
255	3
256	2
258	4
259	8
260	6
261	5
268	2
269	5
270	4
271	4
272	2
273	2
274	1
275	1
277	1
284	3
286	0
288	0
297	1
298	2
299	3
303	1
306	1
311	1
313	2
314	2
315	1
316	1
317	0
318	1
319	2
325	1
327	10
328	5
329	86
330	30
331	14
332	4
333	1
334	1
335	0
339	0
340	2
341	5
342	3
343	89
344	31
345	18
346	6
348	0
356	0
357	1
358	20
359	10
360	3
361	1
364	0
376	0
384	1
387	1
388	1
401	16
402	20
403	21
404	18
405	9
407	3
408	5
409	4
410	4
411	3
412	3
414	5
415	9
417	630
418	237
419	136
420	40
421	10
422	3
423	3
425	1
428	2
429	1
430	3
431	25
432	254
433	113
434	59
435	21
436	3
