Mass Spectrum: 8-[6-N,N-Diethylaminohexyl]amino-4-hydroxymethyl-6-methoxyquinoline
Formula: C21H33N3O2
CAS: 95237-15-3
Molecular weight: 359
m/z	intensity
41	8
42	42
43	17
44	14
45	2
46	1
51	2
52	0
53	3
54	2
55	20
56	24
57	12
58	64
59	3
63	1
64	0
65	2
67	3
68	2
69	5
70	7
71	7
72	22
73	7
74	2
76	0
77	4
78	3
79	5
81	7
82	2
83	3
84	14
86	999
87	52
89	5
90	2
91	3
92	0
93	3
94	1
95	1
96	2
97	3
98	11
99	3
100	2
101	2
102	2
103	2
104	2
105	2
106	1
107	1
108	2
109	1
110	2
111	1
112	22
114	6
115	3
116	5
117	8
118	5
119	2
123	0
124	7
125	2
126	33
127	1
128	7
129	4
130	5
131	4
132	3
133	2
135	0
138	3
140	8
141	0
142	29
143	4
144	9
145	8
146	5
147	2
152	1
153	23
154	9
155	3
156	11
157	9
158	4
159	5
160	7
161	5
162	1
163	2
168	1
169	3
170	2
171	3
172	11
173	14
174	24
175	7
176	0
181	0
183	0
184	4
185	8
186	4
187	19
188	27
189	17
190	4
191	0
197	1
198	2
199	27
200	7
201	8
202	6
203	12
204	45
205	14
206	1
211	1
212	1
213	4
214	4
215	11
216	11
217	93
218	13
219	1
225	4
226	2
227	4
228	1
229	9
230	4
231	10
232	1
239	0
240	0
241	2
242	3
243	7
244	1
245	2
253	0
255	9
256	2
257	4
259	2
260	0
267	2
268	34
269	11
270	4
271	10
272	3
273	16
274	3
283	3
284	3
285	90
286	55
287	14
288	5
306	2
312	3
313	1
328	5
329	1
330	13
331	3
341	14
342	4
344	10
345	2
357	3
358	5
359	115
360	29
361	3
