Mass Spectrum: Pyrimidine, 4,5-dihydro-2,5,6-tris[(trimethylsilyl)oxy]-
Formula: C13H30N2O3Si3
CAS: 95237-77-7
Molecular weight: 346
m/z	intensity
25	0
26	2
27	11
28	14
29	15
30	1
31	11
33	0
34	1
35	0
36	1
38	0
39	1
40	0
41	9
42	8
43	60
44	32
45	193
46	11
47	36
48	2
49	4
50	1
51	1
52	3
53	4
54	3
55	22
56	8
57	14
58	21
59	193
60	21
61	23
62	2
63	4
64	0
65	2
66	12
67	3
68	5
69	5
70	22
71	15
72	60
73	999
74	152
75	195
76	19
77	53
78	3
79	3
80	1
81	1
82	1
83	2
84	15
85	17
86	39
87	21
88	15
89	5
90	2
91	0
92	4
93	10
94	2
95	3
96	3
97	1
98	9
99	42
100	117
101	454
102	107
103	31
104	4
105	4
106	1
107	1
108	7
109	2
110	1
111	2
112	3
113	7
114	11
115	16
116	684
117	91
118	32
119	6
120	1
121	2
122	11
123	1
124	1
125	1
126	5
127	3
128	10
129	17
130	37
131	70
132	21
133	77
134	13
135	7
136	2
137	2
138	1
139	2
140	2
141	11
142	23
143	7
144	16
145	11
146	20
147	492
148	77
149	43
150	5
151	2
153	3
154	2
155	5
156	4
157	15
158	71
159	17
160	11
161	5
162	1
164	1
167	1
168	0
169	9
170	3
171	5
172	8
173	11
174	26
175	8
176	3
177	2
178	1
179	1
182	1
183	2
184	1
185	2
186	2
187	9
188	41
189	10
190	6
191	3
192	2
195	0
197	1
198	1
200	5
201	4
202	18
203	8
204	4
205	3
206	0
207	2
208	4
209	1
212	1
213	35
214	9
215	22
216	64
217	14
218	7
219	1
221	1
223	0
224	0
225	1
227	3
228	2
229	10
230	12
231	17
232	19
233	4
234	1
238	0
239	1
240	1
241	27
242	6
243	19
244	4
245	22
246	8
247	4
249	0
251	0
253	0
254	1
255	3
256	11
257	39
258	11
259	252
260	54
261	22
262	4
263	1
267	0
269	0
271	0
272	1
273	3
274	44
275	11
276	7
277	4
278	6
279	5
280	3
281	2
282	1
283	0
284	1
285	0
286	0
287	2
288	1
289	1
290	1
291	0
293	0
294	0
295	0
296	0
297	2
299	2
300	1
301	2
302	1
303	35
304	10
305	4
306	1
307	1
308	0
310	0
313	1
314	1
315	3
316	2
317	6
318	16
319	5
320	2
321	0
323	0
324	0
325	1
326	1
327	1
328	3
329	2
331	678
332	215
333	100
334	22
335	4
340	0
345	17
346	136
347	44
348	18
349	3
