Mass Spectrum: Methanol, (5-benzyloxy-2-methyl-3-benzofuryl)-
Formula: C17H16O3
CAS: 95279-85-9
Molecular weight: 268
m/z	intensity
29	6
31	15
32	10
38	0
39	12
40	0
41	8
42	0
43	55
44	2
45	0
48	0
51	7
52	1
53	3
54	3
55	9
57	7
58	0
63	6
64	2
65	83
66	4
67	2
68	2
69	11
70	0
71	1
72	0
73	0
76	0
77	27
78	9
79	6
80	0
81	5
82	5
83	3
84	0
85	0
88	0
89	10
90	15
91	999
92	87
93	7
94	0
95	2
97	1
98	0
99	0
101	0
102	1
103	12
104	1
105	5
106	0
107	2
108	0
109	1
110	0
113	0
115	1
118	2
119	37
120	5
121	3
123	1
125	0
127	0
128	1
129	1
130	0
131	15
132	6
133	1
134	0
135	3
136	0
137	0
139	0
143	5
144	1
145	0
147	13
148	4
149	8
150	1
153	1
157	0
158	1
159	19
160	92
161	11
162	0
165	1
167	0
169	0
174	0
175	0
176	4
177	60
178	8
179	8
180	1
181	1
185	0
189	2
190	2
191	10
192	0
193	0
194	0
195	0
199	0
200	0
205	1
207	5
208	0
209	0
210	0
211	0
219	0
220	0
221	2
222	0
223	0
224	0
229	0
235	0
236	0
238	0
239	0
240	0
249	3
250	5
251	4
256	0
265	0
266	2
267	1
268	160
269	29
270	3
