Mass Spectrum: 7.alpha.-Methylthiotestosterone acetate
Formula: C22H32O3S
CAS: 95286-26-3
Molecular weight: 376
m/z	intensity
41	120
42	11
43	999
44	15
45	24
46	0
47	28
48	13
49	8
50	1
51	3
52	4
53	43
54	1
55	149
56	4
57	19
58	0
59	3
61	69
62	0
63	4
65	32
66	9
67	67
68	2
69	24
70	0
71	8
73	1
74	3
75	6
77	81
78	18
79	101
80	12
81	58
82	6
83	18
84	5
85	15
86	3
87	11
88	5
89	3
90	0
91	147
92	20
93	87
94	17
95	47
96	3
97	39
98	3
99	3
101	2
102	1
103	16
104	9
105	96
106	19
107	61
108	13
109	35
110	6
111	13
113	0
115	31
116	12
117	45
118	15
119	64
120	12
121	32
122	18
123	30
124	21
125	8
127	7
128	21
129	38
130	13
131	55
132	18
133	93
134	18
135	25
136	46
137	14
138	0
139	7
141	17
142	12
143	38
144	37
145	101
146	25
147	35
148	8
149	14
150	2
151	8
152	2
153	8
154	5
155	21
156	11
157	27
158	12
159	33
160	16
161	26
162	12
163	11
164	0
165	5
166	1
167	19
168	5
169	17
170	6
171	15
172	11
173	27
174	17
175	14
176	3
177	2
178	0
179	3
180	0
181	9
182	6
183	22
184	6
185	13
186	7
187	14
188	6
189	2
193	42
194	5
195	9
196	3
197	12
198	6
199	8
200	2
201	3
207	2
208	1
209	21
210	5
211	24
212	7
213	13
214	4
215	4
221	0
222	0
223	2
224	12
225	14
226	11
227	11
228	0
229	2
235	17
236	2
239	3
240	4
241	2
242	1
243	0
249	0
250	3
251	6
253	44
254	6
255	0
267	2
268	32
269	34
270	6
271	9
272	0
273	9
274	0
284	2
285	2
286	17
287	14
288	2
311	0
313	2
315	1
316	5
317	3
328	34
329	53
330	18
331	1
361	12
362	1
376	52
377	15
378	4
