Mass Spectrum: Cyclohexyl-p-toluene sulfonate
Formula: C13H18O3S
CAS: 953-91-3
Molecular weight: 254
m/z	intensity
25	1
26	18
27	125
28	10
29	75
30	3
31	20
36	1
37	7
38	20
39	215
40	30
41	290
42	40
43	56
44	20
45	10
46	2
47	1
48	5
49	4
50	35
51	62
52	27
53	79
54	380
55	200
56	27
57	67
58	14
59	9
60	2
61	5
62	16
63	57
64	19
65	206
66	29
67	805
68	47
69	11
70	5
71	12
72	5
73	6
74	14
75	10
76	7
77	61
78	18
79	63
80	17
81	113
82	999
83	104
84	6
85	2
86	2
87	3
88	2
89	48
90	37
91	628
92	111
93	17
94	2
95	1
96	1
97	2
98	5
99	31
100	5
101	2
102	1
103	1
104	1
105	6
106	2
107	62
108	44
109	8
110	1
111	1
112	0
113	0
114	0
115	1
116	1
117	2
118	1
119	2
120	0
121	3
122	1
123	4
124	9
125	1
126	0
127	0
128	0
129	1
131	1
132	0
133	0
134	0
135	1
136	1
137	0
138	1
139	18
140	7
141	4
142	1
143	0
148	0
151	7
152	1
153	0
154	0
155	193
156	22
157	22
158	2
159	0
165	5
166	0
167	2
168	0
169	0
170	2
171	6
172	164
173	683
174	67
175	38
176	2
181	0
182	2
183	5
184	0
211	1
236	0
237	1
254	55
255	8
256	3
