Mass Spectrum: N-Nitrosoprolylalanine
Formula: C8H13N3O4
CAS: 95326-12-8
Molecular weight: 215
m/z	intensity
67	25
68	227
69	295
70	999
71	83
73	18
88	237
95	18
96	25
99	471
100	86
110	22
124	22
139	29
168	25
185	112
186	22
215	25
