Mass Spectrum: endo-4-Oxatricyclo[5.2.1.0(2,6)]dec-8-en-3-one
Formula: C9H10O2
CAS: 95340-93-5
Molecular weight: 150
m/z	intensity
26	39
27	86
28	58
29	22
31	8
37	16
38	33
39	150
40	78
41	26
45	8
50	22
51	39
52	14
53	11
54	19
55	86
57	8
61	8
62	12
63	26
64	8
65	119
66	999
67	58
77	25
78	14
79	15
84	25
85	78
91	61
92	17
105	10
149	8
150	6
