Mass Spectrum: Tetrahydrofuran-2-one, 3-benzoylamino-5-bromomethyl-
Formula: C12H12BrNO3
CAS: 95373-02-7
Molecular weight: 297
m/z	intensity
41	42
42	3
43	17
44	6
45	1
47	16
48	1
49	87
50	33
51	137
52	10
53	4
54	3
55	7
56	1
57	4
62	0
63	2
65	3
66	1
67	1
68	14
69	5
70	3
71	1
74	11
75	12
76	4
77	367
78	22
79	2
80	0
81	0
82	1
88	7
91	4
93	9
95	8
96	5
97	2
103	2
105	999
106	64
107	2
111	1
117	0
118	0
119	0
121	30
122	3
130	0
132	0
139	0
146	5
147	5
148	7
172	1
174	132
176	28
177	0
178	1
190	9
192	0
200	8
204	21
205	1
218	252
219	29
220	2
252	1
254	2
297	60
299	67
300	5
