Mass Spectrum: Butanamide, 2-methylene-N-phenyl-
Formula: C11H13NO
CAS: 95383-64-5
Molecular weight: 175
m/z	intensity
25	0
26	14
27	152
28	6
29	234
30	6
31	0
37	6
38	21
39	179
40	24
41	16
42	2
43	2
44	2
49	1
50	20
51	70
52	18
53	63
54	25
55	999
56	44
57	1
61	1
62	6
63	22
64	26
65	100
66	41
67	5
68	1
69	1
73	0
74	5
75	3
76	5
77	77
78	10
79	3
80	1
81	1
82	5
83	484
84	26
85	1
87	0
89	2
90	3
91	22
92	33
93	51
94	7
102	0
103	2
104	4
105	5
106	25
107	2
115	2
116	1
117	5
118	34
119	9
120	8
121	0
128	4
129	2
130	12
131	4
132	4
133	1
143	0
144	1
145	1
146	147
147	29
148	3
149	0
157	1
158	3
159	1
160	19
161	1
174	18
175	213
176	25
177	2
