Mass Spectrum: 2,4(1H,3H)-Pyrimidinedione, 1-[3,5-dihydroxy-6-hydroxymethyl]-
Formula: C13H15N5O6
CAS: 95395-04-3
Molecular weight: 337
m/z	intensity
42	999
43	483
44	432
45	49
46	27
47	37
48	17
52	60
53	93
54	71
55	164
56	58
57	21
58	10
65	6
66	12
67	32
68	163
69	357
70	81
71	8
79	14
80	22
81	16
82	67
83	22
84	52
85	10
86	27
88	3
95	40
96	24
98	3
108	7
110	39
112	552
113	60
120	3
125	16
126	43
140	16
141	22
152	23
153	24
195	77
196	7
