Mass Spectrum: 3-(3-Methyl-5-oxo-1-phenyl-4,5-dihydro-1H-pyrazol-4-yl)-propionitrile
Formula: C13H13N3O
CAS: 954-74-5
Molecular weight: 227
m/z	intensity
33	0
37	28
38	80
39	299
40	109
41	219
42	169
43	10
44	2
45	0
47	0
50	102
51	333
52	80
53	131
54	47
55	70
56	5
57	1
58	0
59	0
61	5
62	18
63	85
64	160
65	118
66	63
67	162
68	55
69	8
70	6
71	0
72	0
73	2
74	15
75	20
77	999
78	93
79	11
80	11
81	7
82	5
83	2
84	3
85	1
86	1
87	1
88	3
89	8
91	360
92	65
93	58
94	46
95	5
96	2
97	0
100	4
101	1
102	4
103	16
104	35
105	183
106	36
107	18
108	6
109	1
110	1
111	0
114	12
115	11
116	10
117	26
118	42
119	23
120	7
122	159
123	12
124	0
127	3
128	11
129	13
130	22
131	13
132	31
133	69
134	18
135	6
136	0
137	2
140	0
141	1
142	5
143	6
144	15
145	13
146	8
147	2
148	0
152	0
153	1
154	2
155	3
156	6
157	17
158	15
159	59
160	9
161	0
167	0
168	1
169	3
170	12
171	10
172	14
173	56
174	124
175	14
176	1
180	0
181	1
182	2
183	8
184	13
185	53
186	112
187	585
188	67
189	5
190	0
196	0
197	1
198	7
199	6
200	3
201	2
202	0
206	0
210	0
211	0
212	0
222	0
227	671
228	82
229	8
230	0
