Mass Spectrum: Carbamic acid, diphenyl-, 3,7-dimethyl-2,6-octadienyl ester
Formula: C23H27NO2
CAS: 95438-58-7
Molecular weight: 349
m/z	intensity
26	0
27	19
28	6
29	16
30	0
31	0
37	0
38	1
39	31
41	286
42	12
43	16
44	8
45	0
49	0
50	2
51	28
52	3
53	26
54	2
55	29
56	2
57	11
58	0
61	0
62	0
63	3
64	2
65	15
66	13
67	46
68	38
69	999
70	50
71	3
74	0
75	0
76	1
77	45
78	4
79	10
80	9
81	396
82	25
83	2
84	0
85	0
88	0
89	1
90	0
91	9
92	4
93	19
94	3
95	56
96	4
97	0
101	0
102	0
103	1
104	2
105	2
106	0
107	2
108	0
109	2
110	0
113	0
114	0
115	4
116	1
117	0
119	1
120	0
121	3
122	0
126	0
127	0
128	1
129	0
130	0
135	1
136	88
137	72
138	7
139	3
140	3
141	2
142	1
143	0
145	0
151	1
152	1
153	0
154	0
164	0
166	7
167	57
168	77
169	421
170	54
171	3
178	1
179	0
180	0
182	1
194	3
195	1
196	19
197	2
198	0
208	0
210	0
212	0
213	29
214	24
215	3
216	0
220	0
221	0
222	5
223	1
234	0
235	6
236	3
237	1
248	7
249	1
262	0
263	0
280	0
290	1
291	0
305	20
306	4
307	0
349	14
350	3
351	0
