Mass Spectrum: 2-(2-Chlorophenyl)-1,3-bis(p-tolyl)imidazolidine
Formula: C23H23ClN2
CAS: 95431-75-7
Molecular weight: 362
m/z	intensity
33	11
34	5
35	6
36	27
37	5
39	101
40	85
41	48
42	14
43	7
44	44
45	2
48	1
50	20
51	66
52	24
53	14
54	7
55	5
57	9
61	1
62	5
63	62
65	366
66	22
67	4
69	3
70	3
71	3
73	5
75	45
76	17
77	129
78	46
79	73
80	7
81	2
82	4
83	8
85	8
87	5
88	5
89	142
91	999
92	72
93	8
96	4
97	4
98	1
99	8
101	6
102	21
103	52
105	538
106	73
107	11
108	3
109	1
111	20
112	10
113	9
114	7
115	16
116	32
118	598
119	106
120	54
121	6
123	3
124	4
125	76
126	14
127	23
128	8
130	20
132	96
133	100
134	36
135	5
137	2
138	9
139	8
140	7
141	4
142	1
143	1
144	2
147	4
148	5
149	1
150	8
151	15
152	20
153	8
154	5
155	3
156	3
159	5
160	4
162	1
163	9
164	9
165	59
166	21
167	7
168	3
171	1
174	1
175	1
176	3
177	4
178	24
179	22
180	18
181	43
182	19
190	8
191	9
192	20
193	23
194	32
195	11
196	1
199	1
201	1
202	1
204	3
205	3
206	16
207	84
208	176
209	26
210	36
211	5
213	1
214	2
215	7
216	1
217	2
218	2
220	6
221	4
222	3
223	2
224	2
226	2
228	170
229	42
230	70
231	17
232	6
233	2
235	1
240	3
242	570
243	111
244	206
245	40
246	8
249	7
251	978
252	158
253	11
254	1
256	1
257	1
269	1
271	45
272	9
273	13
274	2
323	3
325	6
326	2
327	12
328	3
333	2
334	2
361	78
362	191
363	68
364	67
365	14
366	1
