Mass Spectrum: 1-Benzoyl-2-(3-pyridyl)-3-pyrrolidinone p-toluenesulfonylhydrazone
Formula: C23H22N4O3S
CAS: 95433-48-0
Molecular weight: 434
m/z	intensity
14	1
15	1
16	13
17	7
18	21
26	5
27	20
28	87
29	3
31	4
32	1
33	1
34	1
37	4
38	10
39	57
40	6
41	17
42	3
43	4
44	7
45	38
46	4
47	2
48	5
49	3
50	34
51	97
52	23
53	13
54	10
55	5
56	1
57	2
58	2
59	1
60	3
61	7
62	14
63	39
64	19
65	113
66	9
67	8
68	2
69	9
70	2
71	4
72	1
73	3
74	10
75	9
76	23
77	464
78	64
79	55
80	9
81	2
82	2
83	1
84	2
85	2
86	3
87	3
88	3
89	34
90	21
91	422
92	110
93	9
94	3
95	3
96	1
97	7
98	1
99	1
101	1
102	5
103	20
104	17
105	999
106	91
107	47
108	36
109	5
110	1
111	6
114	1
115	3
116	6
117	14
118	13
119	9
120	2
121	25
122	71
123	96
124	83
125	9
126	4
127	2
128	3
129	6
130	11
131	11
132	3
133	3
134	1
135	1
138	1
139	153
140	25
141	9
142	2
143	4
144	15
145	124
146	22
147	3
152	1
153	2
154	2
155	96
156	38
157	14
158	24
159	13
160	3
161	1
163	6
164	1
165	2
166	2
167	2
170	1
171	70
172	10
173	17
174	9
175	1
176	1
178	1
179	1
180	1
181	2
182	4
183	1
184	2
185	1
186	2
193	1
195	1
197	2
198	3
199	2
203	2
204	4
205	3
206	2
211	2
212	1
213	3
214	4
218	1
219	1
220	1
221	2
222	1
223	2
224	1
229	1
230	1
231	6
232	9
233	5
234	2
237	1
238	4
239	2
244	1
245	1
246	34
247	8
248	8
249	9
250	148
251	52
252	7
260	1
261	4
262	5
263	108
264	20
265	3
266	5
267	4
268	6
269	1
278	58
279	9
280	5
281	1
313	1
367	1
