Mass Spectrum: 2-(4-Chlorophenyl)-1,3-bis(p-tolyl)imidazolidine
Formula: C23H23ClN2
CAS: 95431-76-8
Molecular weight: 362
m/z	intensity
32	2
35	9
36	17
37	3
39	83
40	16
41	43
42	12
43	3
44	10
45	1
47	7
48	3
49	3
50	20
51	46
52	20
53	14
54	5
55	2
56	1
57	2
59	1
60	1
61	2
62	8
63	48
65	325
66	18
67	2
69	2
70	2
71	2
73	4
75	37
77	134
78	40
79	70
80	7
82	3
83	23
84	3
85	14
86	2
87	6
89	141
91	999
92	68
93	6
94	1
96	2
97	4
99	7
100	1
101	6
102	12
103	46
105	613
106	72
107	10
108	3
110	2
111	18
112	7
113	7
114	4
115	11
116	21
118	802
119	134
120	46
121	6
123	5
124	6
125	76
126	18
127	24
128	7
129	2
130	15
131	10
132	60
133	61
134	30
135	3
136	1
137	4
138	9
139	7
140	5
141	3
142	2
143	1
144	1
145	1
146	1
147	1
148	2
149	2
150	7
151	19
152	16
153	8
154	4
155	2
156	1
157	1
159	3
160	2
161	1
162	2
163	6
164	5
165	40
166	14
167	4
168	2
171	1
174	3
175	1
176	3
177	5
178	13
179	11
180	12
181	36
182	15
190	5
191	9
192	14
193	14
194	7
195	2
199	2
201	2
202	1
203	1
204	3
205	3
206	17
207	77
208	49
209	8
210	31
211	5
212	1
213	1
214	3
215	5
216	2
217	2
218	1
220	1
221	4
222	3
223	1
224	2
225	1
226	3
228	135
229	43
230	48
231	12
232	3
233	1
235	1
236	1
240	2
242	653
243	154
244	219
245	46
246	7
247	1
249	4
251	851
252	126
253	12
254	1
256	2
257	2
266	1
269	1
271	35
272	7
273	11
274	1
327	1
328	1
333	1
334	1
335	1
359	1
360	3
361	68
362	195
363	67
364	72
365	14
366	2
