Mass Spectrum: Ethenylamine, N-benzoyl-2-[3,5-di-t-butyl-4-hydroxyphenyl]-
Formula: C23H29NO2
CAS: 95436-85-4
Molecular weight: 351
m/z	intensity
41	133
42	12
43	63
44	43
45	19
46	5
49	9
50	41
51	86
52	16
53	22
54	4
55	41
56	6
57	201
58	11
59	10
60	49
61	31
62	33
63	75
64	29
65	117
66	35
67	48
68	10
69	2
70	12
71	9
72	6
73	34
74	95
75	54
76	77
77	999
78	142
79	43
80	12
81	14
82	8
83	10
84	11
85	4
86	10
87	14
88	14
89	11
90	5
91	85
92	14
93	14
94	5
95	13
96	14
97	2
98	1
99	1
100	23
101	6
102	11
103	20
104	16
105	726
106	67
107	23
108	2
109	5
110	7
111	1
112	1
114	9
115	45
116	17
117	24
118	7
119	31
120	5
121	198
122	45
123	5
124	4
127	12
128	31
129	24
130	12
131	7
132	8
133	14
134	41
135	16
136	3
137	2
139	1
141	15
142	9
143	10
144	6
145	15
146	9
147	18
148	3
149	12
150	5
151	3
152	2
153	4
154	3
155	10
156	7
157	7
158	4
159	15
160	6
161	16
162	4
163	13
164	4
165	4
167	1
168	1
169	5
170	1
171	3
172	2
173	6
174	8
175	25
176	8
177	18
178	3
179	4
181	3
184	3
185	1
186	2
187	3
188	4
189	10
190	7
191	38
192	6
193	3
199	3
200	1
201	2
202	1
203	14
204	5
205	17
206	6
207	46
208	6
209	1
214	3
215	5
216	5
217	16
218	1
219	324
220	48
221	14
222	6
229	1
230	3
231	12
232	7
233	179
234	91
235	257
236	40
237	5
244	5
245	2
246	11
247	6
248	14
249	58
250	56
251	9
258	3
259	3
261	3
262	3
263	20
264	42
265	4
273	1
274	9
275	3
277	1
287	2
289	10
290	1
301	3
302	1
303	1
318	1
336	9
337	2
343	1
349	4
350	3
351	159
352	45
353	6
