Mass Spectrum: 1-Benzoyl-3-benzylidene-2-(3-pyridyl)pyrrolidine
Formula: C23H20N2O
CAS: 95434-87-0
Molecular weight: 340
m/z	intensity
27	3
28	4
39	5
41	4
42	2
50	3
51	24
52	3
53	4
63	5
64	2
65	9
66	1
69	1
74	1
75	2
76	8
77	265
78	29
79	5
80	3
88	1
89	4
90	1
91	38
92	12
93	11
101	1
102	5
103	9
104	8
105	999
106	89
107	7
108	1
109	1
115	20
116	11
117	5
118	6
119	3
122	4
126	1
127	7
128	15
129	14
130	11
131	55
132	9
133	1
139	2
140	1
141	2
142	1
143	1
144	1
145	1
151	1
152	4
153	1
154	1
155	2
156	5
157	6
158	2
163	1
164	1
165	3
166	2
167	5
168	1
176	1
177	1
178	5
179	3
180	7
181	2
182	2
184	1
189	1
190	2
191	5
192	7
193	5
194	4
195	1
202	1
203	1
204	10
205	9
206	20
207	16
208	8
209	2
210	5
211	1
216	1
217	5
218	37
219	49
220	21
221	5
222	2
223	1
231	1
232	2
233	15
234	12
235	228
236	44
237	4
249	9
250	2
260	2
261	1
262	42
263	12
264	2
283	1
311	7
312	2
321	1
323	2
339	30
340	569
341	148
342	19
343	2
