Mass Spectrum: 2-(4,4-Dimethoxy-butyl)-1,1-dimethyl-3-methylene-cyclohexane
Formula: C15H28O2
CAS: 95452-21-4
Molecular weight: 240
m/z	intensity
25	0
26	4
27	67
29	93
30	4
31	60
33	4
37	1
38	3
39	84
40	22
41	407
42	33
43	92
44	4
45	77
46	2
47	90
48	2
49	0
50	4
51	16
52	12
53	100
54	22
55	196
56	34
57	38
58	51
59	21
60	1
61	2
62	1
63	6
64	2
65	38
66	25
67	172
68	62
69	446
70	36
71	269
72	26
73	9
74	3
75	999
76	43
77	85
78	25
79	210
80	69
81	267
82	94
83	45
84	239
85	94
86	7
87	3
88	62
89	8
90	5
91	109
92	36
93	152
94	193
95	221
96	43
97	36
98	10
99	8
100	1
101	248
102	30
103	8
104	4
105	63
106	41
107	257
108	89
109	297
110	32
111	17
112	5
113	3
114	6
115	15
116	5
117	8
118	3
119	36
120	108
121	135
122	48
123	51
124	111
125	22
126	4
127	10
128	2
129	3
130	1
131	4
132	9
133	116
134	22
135	182
136	36
137	30
138	11
139	10
140	1
141	4
142	2
143	0
144	0
145	2
146	2
147	23
148	26
149	18
150	321
151	49
152	10
153	10
154	2
155	3
156	0
157	1
158	0
159	2
160	1
161	167
162	24
163	20
164	3
165	10
166	3
167	5
168	1
169	1
170	0
171	5
172	0
173	0
174	1
175	6
176	277
177	193
178	27
179	6
180	4
193	32
194	7
195	3
206	3
207	3
208	78
209	28
210	6
225	2
226	0
238	1
239	2
240	6
241	1
