Mass Spectrum: Cyclohexane, 2-ethenyl-1,1-dimethyl-3-methylene-
Formula: C11H18
CAS: 95452-08-7
Molecular weight: 150
m/z	intensity
26	8
27	102
28	49
29	76
31	15
38	8
39	161
40	39
41	414
42	24
43	62
44	10
45	7
50	10
51	39
52	25
53	91
54	21
55	110
56	19
57	25
58	9
59	6
63	16
64	6
65	60
66	44
67	129
68	40
69	999
70	59
71	12
77	117
78	34
79	422
80	105
81	184
82	129
83	24
84	5
85	7
91	105
92	23
93	136
94	173
95	47
96	25
97	10
103	6
105	26
106	15
107	240
108	44
109	79
110	9
111	5
115	6
117	4
119	7
120	4
121	37
122	21
123	5
135	189
136	20
150	220
151	29
