Mass Spectrum: Cyclohexanepropanol, 2,2-dimethyl-6-methylene-
Formula: C12H22O
CAS: 95452-04-3
Molecular weight: 182
m/z	intensity
26	15
27	234
28	25
29	226
30	7
31	223
37	3
38	9
39	279
40	64
41	869
42	65
43	192
44	21
45	18
50	13
51	51
52	35
53	211
54	54
55	431
56	78
57	92
58	11
59	6
60	3
62	3
64	5
65	89
66	44
67	460
68	186
69	999
70	126
71	139
72	10
73	3
74	2
75	3
76	3
77	164
78	49
79	336
80	102
81	503
82	251
83	87
84	16
85	25
86	3
89	4
91	173
92	32
93	450
94	92
95	524
96	123
97	61
98	42
99	10
100	2
101	2
102	2
103	10
104	5
105	54
106	51
107	158
108	168
109	522
110	67
111	79
112	17
113	15
114	4
115	9
116	3
117	8
118	3
119	27
120	10
121	202
122	44
123	287
124	69
125	45
126	151
127	17
128	5
129	2
130	2
131	3
132	3
133	16
134	5
135	33
136	29
137	18
138	24
139	58
140	26
141	7
142	2
145	6
147	24
148	5
149	289
150	38
151	6
152	6
153	12
154	3
155	3
157	4
161	4
162	12
163	15
164	8
165	9
166	3
167	290
168	37
169	3
178	2
179	2
180	9
181	34
182	97
183	14
184	1
