Mass Spectrum: 4-(2,2-Dimethyl-6-methylenecyclohexyl)butanal
Formula: C13H22O
CAS: 95452-13-4
Molecular weight: 194
m/z	intensity
25	7
26	46
27	164
28	397
29	150
30	8
31	14
36	8
37	9
38	17
39	197
40	48
41	614
42	70
43	207
44	177
45	9
49	9
50	17
51	42
52	24
53	134
54	43
55	343
56	85
57	150
58	42
59	11
60	3
62	4
63	14
64	6
65	62
66	35
67	279
68	150
69	999
70	110
71	66
72	6
73	13
74	5
75	9
76	6
77	115
78	43
79	278
80	70
81	364
82	164
83	86
84	33
85	36
86	3
89	6
90	3
91	189
92	55
93	144
94	167
95	211
96	63
97	60
98	18
99	10
101	6
102	3
103	11
104	12
105	99
106	39
107	193
108	58
109	263
110	46
111	87
112	27
113	8
115	16
116	6
117	16
118	6
119	44
120	51
121	56
122	32
123	117
124	40
125	26
126	8
127	5
128	12
129	11
130	6
131	9
132	8
133	114
134	21
135	131
136	24
137	22
138	57
139	10
140	6
141	24
142	13
143	8
144	3
145	6
147	19
148	9
149	8
150	179
151	66
152	10
153	5
154	6
155	7
157	3
159	4
161	96
162	14
163	6
176	36
177	7
178	5
179	76
180	12
194	19
195	9
