Mass Spectrum: Cyclohexanebutanoic acid, 2,2-dimethyl-6-methylene-, methyl ester
Formula: C14H24O2
CAS: 95452-15-6
Molecular weight: 224
m/z	intensity
25	1
26	7
27	119
28	28
29	144
30	4
31	14
33	2
37	1
38	4
39	154
40	38
41	646
42	48
43	158
44	11
45	21
46	1
47	2
50	6
51	30
52	23
53	159
54	40
55	344
56	55
57	59
58	7
59	109
60	8
61	7
62	1
63	7
64	3
65	69
66	35
67	348
68	197
69	999
70	77
71	30
72	4
73	34
74	91
75	58
76	5
77	144
78	33
79	349
80	90
81	566
82	295
83	91
84	11
85	57
86	4
87	49
88	9
89	33
90	6
91	145
92	29
93	283
94	322
95	586
96	104
97	49
98	9
99	16
100	6
101	33
102	4
103	11
104	5
105	67
106	24
107	224
108	187
109	811
110	89
111	91
112	14
113	22
114	5
115	21
116	5
117	14
118	4
119	43
120	10
121	98
122	37
123	408
124	106
125	24
126	6
127	10
128	3
129	10
130	2
131	24
132	4
133	49
134	9
135	205
136	59
137	41
138	8
139	7
140	2
141	8
142	3
143	8
144	2
145	4
146	1
147	16
148	11
149	202
150	95
151	21
152	4
153	7
154	27
155	27
156	9
157	3
158	1
159	60
160	8
161	9
162	3
163	10
164	7
165	4
166	3
167	7
168	412
169	51
170	5
171	2
172	0
173	2
174	2
175	70
176	13
177	206
178	28
179	5
180	4
181	95
182	13
183	3
184	1
185	1
186	0
187	0
188	0
189	1
190	0
191	3
192	11
193	42
194	8
195	8
196	2
197	1
198	0
199	1
200	0
201	1
202	0
203	0
204	0
205	0
206	0
207	6
208	2
209	579
210	87
211	9
212	1
213	0
217	0
218	0
219	1
220	0
221	0
222	3
223	2
224	97
225	16
226	2
227	0
