Mass Spectrum: 3,4,5,6-Tetrahydro-2,4,6-triethyl-2H-1,3,5-thiadiazine
Formula: C9H20N2S
CAS: 95465-59-1
Molecular weight: 188
m/z	intensity
32	130
33	50
34	150
39	60
41	400
42	50
43	110
45	70
46	40
53	50
55	40
56	270
57	100
58	90
59	20
68	180
69	30
70	60
73	20
74	120
75	20
82	60
83	10
84	20
96	20
97	110
98	999
99	100
131	20
142	10
171	10
