Mass Spectrum: 2-Methyl-5-(1-adamantyl)pentan-2-ol
Formula: C16H28O
CAS: 95477-25-1
Molecular weight: 236
m/z	intensity
40	43
41	216
42	48
43	169
44	19
53	50
54	21
55	86
56	33
57	54
58	183
59	999
60	49
65	28
67	88
69	34
77	65
78	34
79	159
80	30
81	56
91	69
92	40
93	115
105	26
107	35
134	27
135	276
136	36
161	19
162	44
178	9
203	4
218	10
