Mass Spectrum: cis,cis-2,9-Dimethylspiro[5.5]undecane
Formula: C13H24
CAS: 95472-51-8
Molecular weight: 180
m/z	intensity
55	590
67	410
68	190
81	930
82	320
95	999
96	190
109	99
110	440
123	350
124	110
137	260
151	7
165	42
180	320
181	46
