Mass Spectrum: trans,cis-2,8-Dimethylspiro[5.5]undecane
Formula: C13H24
CAS: 95472-52-9
Molecular weight: 180
m/z	intensity
55	430
67	250
68	110
81	620
82	220
95	999
96	170
109	85
110	150
123	60
124	35
137	370
151	5
165	25
180	220
181	31
