Mass Spectrum: 1,1'-Biphenyl, 4-(methoxymethyl)-4'-(4-propylcyclohexyl)-
Formula: C23H30O
CAS: 95478-16-3
Molecular weight: 322
m/z	intensity
15	70
27	132
28	90
29	209
39	63
41	318
42	53
43	195
45	999
46	26
53	39
54	28
55	193
56	21
57	25
65	25
67	54
69	94
77	44
79	26
81	85
82	36
83	59
89	54
90	39
91	93
102	30
103	34
105	55
115	90
116	32
117	27
118	67
121	81
128	45
152	110
153	37
165	356
166	134
167	225
168	62
176	34
178	254
179	142
180	285
181	107
189	68
190	56
191	187
192	93
193	419
194	95
195	59
197	304
198	80
202	33
203	57
205	548
206	145
207	164
208	69
211	361
212	70
223	94
224	365
225	90
237	194
238	60
291	321
292	85
322	930
323	216
324	27
