Mass Spectrum: t-Butyl-(2-[3-(2,2-dimethyl-6-methylene-cyclohexyl)-propyl]-[1,3]dithian-2-yl)-dimethyl-silane
Formula: C22H42S2Si
CAS: 95472-42-7
Molecular weight: 398
m/z	intensity
26	7
27	151
28	135
29	142
30	16
31	28
33	3
34	8
35	2
36	20
37	14
38	27
39	191
40	55
41	514
42	98
43	210
44	107
45	94
46	16
47	66
48	5
49	7
50	26
51	33
52	17
53	83
54	28
55	224
56	124
57	132
58	66
59	199
60	24
61	41
62	8
63	16
64	6
65	46
66	18
67	139
68	59
69	279
70	50
71	47
72	25
73	828
74	76
75	999
76	78
77	102
78	25
79	98
80	27
81	158
82	44
83	66
84	27
85	42
86	16
87	74
88	7
89	21
90	27
91	255
92	37
93	81
94	23
95	156
96	36
97	44
98	17
99	49
100	13
101	104
102	18
103	55
104	19
105	88
106	24
107	77
108	22
109	79
110	16
111	30
112	9
113	77
114	13
115	96
116	16
117	55
118	12
119	93
120	22
121	53
122	15
123	43
124	13
125	17
126	8
127	36
128	13
129	36
130	8
131	54
132	25
133	53
134	22
135	35
136	10
137	17
138	9
139	17
140	5
141	23
142	9
143	17
144	6
145	131
146	14
147	39
148	10
149	21
150	14
151	15
152	5
153	16
154	5
155	43
156	7
157	18
158	15
159	21
160	4
161	31
162	6
163	24
164	7
165	120
166	16
167	21
168	4
169	13
170	2
171	12
172	4
173	15
174	6
175	145
176	42
177	59
178	10
179	6
180	2
181	14
182	3
183	5
184	4
185	4
186	2
187	12
188	2
189	10
190	2
191	8
192	2
193	3
195	7
196	3
197	12
198	4
199	9
200	1
201	6
202	2
203	61
204	10
205	17
206	3
207	20
208	4
209	12
210	4
211	4
212	1
213	4
215	2
216	12
218	2
219	8
220	1
221	44
222	8
223	17
224	3
225	1
227	1
229	78
230	14
231	14
232	2
233	27
234	6
235	11
236	2
237	2
238	4
239	3
245	5
247	3
249	4
251	57
252	11
253	4
261	7
265	4
267	4
269	3
271	3
277	3
281	4
282	3
283	60
284	13
285	8
292	5
297	3
323	54
324	15
325	6
339	2
341	44
342	13
343	8
344	1
349	5
355	22
356	6
357	3
383	13
384	4
385	2
398	6
400	2
