Mass Spectrum: 2-Heptynamide, N,N-diethyl-
Formula: C11H19NO
CAS: 95503-11-0
Molecular weight: 181
m/z	intensity
27	445
28	123
29	394
30	64
31	59
35	3
37	12
38	53
39	277
40	36
41	313
42	300
43	165
44	182
45	27
46	3
47	7
48	4
49	6
50	30
51	55
52	63
53	274
54	68
55	78
56	105
57	35
58	416
59	26
60	6
61	6
62	3
63	15
64	6
65	48
66	108
67	126
68	32
69	26
70	36
71	34
72	187
73	16
74	20
75	8
76	6
77	66
78	19
79	212
80	42
81	169
82	26
83	21
84	7
85	11
86	8
87	7
88	1
89	1
90	2
91	28
92	25
93	17
94	15
95	28
96	30
97	8
98	28
99	3
100	30
101	4
103	2
104	5
105	7
106	3
107	15
108	20
109	999
110	148
111	23
112	29
113	16
114	1
115	8
117	1
118	2
119	3
120	2
122	8
123	4
124	177
125	32
126	7
127	2
128	5
129	1
131	2
134	2
135	2
136	12
137	26
138	384
139	261
140	43
144	2
150	2
152	143
153	25
154	2
164	1
165	3
166	119
167	19
177	2
178	4
179	5
180	28
181	174
182	21
