Mass Spectrum: 2-Pentynamide, N,N-diethyl-
Formula: C9H15NO
CAS: 95503-10-9
Molecular weight: 153
m/z	intensity
27	381
28	199
29	130
30	36
31	123
37	10
38	21
39	56
40	16
41	48
42	116
43	999
44	123
45	151
46	9
47	7
49	5
50	23
51	40
52	26
53	214
54	26
55	17
56	61
57	15
58	266
59	11
60	11
61	97
62	3
63	3
64	1
65	10
66	25
67	20
68	12
69	13
70	73
71	9
72	49
73	36
74	10
75	9
76	1
77	6
78	3
79	25
80	15
81	778
82	47
83	7
84	27
85	3
86	2
87	5
88	33
89	2
91	15
92	12
93	2
94	2
95	3
96	8
97	5
99	2
100	5
101	1
105	1
108	1
109	6
110	52
111	6
114	1
115	2
119	1
123	1
124	50
125	47
126	6
128	2
138	152
139	16
140	1
143	2
151	3
152	75
153	95
154	12
