Mass Spectrum: N-(m-Chlorophenyl)-4,5-dihydro-3-furamide
Formula: C11H10ClNO2
CAS: 95516-15-7
Molecular weight: 223
m/z	intensity
15	1
26	1
27	3
28	7
29	7
36	2
37	2
38	6
39	48
40	8
41	112
42	5
43	3
44	1
49	1
50	4
51	5
52	3
53	4
54	1
55	1
61	1
62	3
63	11
64	7
65	8
66	1
67	2
68	5
69	108
70	8
73	4
74	2
75	13
76	2
77	2
79	1
85	1
89	1
90	5
91	5
92	3
93	3
94	3
95	11
96	2
97	999
98	59
99	14
100	3
101	4
102	2
111	13
112	2
113	5
114	1
115	1
125	2
126	3
127	20
128	3
129	6
130	2
138	4
139	1
140	4
141	1
142	1
153	3
154	2
155	1
164	1
166	1
177	1
187	1
194	1
204	2
205	4
206	1
207	1
222	1
223	215
224	27
225	71
226	9
