Mass Spectrum: 2-(4-Bromo-phenylthio)indan
Formula: C15H13BrS
CAS: 95524-14-4
Molecular weight: 304
m/z	intensity
39	93
43	182
50	36
58	42
63	86
65	74
89	48
91	197
108	159
109	55
115	631
116	777
117	999
118	85
187	25
188	15
189	30
190	19
304	129
305	30
306	135
307	31
