Mass Spectrum: Piperidine, 2-ethyl-1-[2-methyl-1-oxo-2-butenyl]-
Formula: C12H21NO
CAS: 95524-60-0
Molecular weight: 195
m/z	intensity
41	128
42	56
43	32
44	11
45	2
47	5
48	2
52	8
53	77
54	70
55	628
56	91
57	11
58	3
59	0
60	0
61	1
63	1
65	4
66	1
67	17
68	15
69	26
70	20
71	5
72	2
73	0
75	2
76	0
77	3
78	2
79	3
80	6
81	8
82	45
83	999
84	739
85	42
86	9
88	3
91	2
92	1
93	2
94	4
95	8
96	12
97	6
98	25
99	3
100	4
101	0
102	0
104	1
105	1
106	1
107	1
108	3
109	1
110	22
111	12
112	39
113	3
114	1
120	0
121	0
122	4
123	2
124	10
125	2
126	3
128	2
130	0
134	1
136	3
137	2
138	11
139	1
140	15
141	1
147	0
148	2
149	0
150	6
151	4
152	14
153	1
154	1
162	1
164	6
165	5
166	531
167	55
168	4
178	3
180	124
181	16
182	3
183	0
193	0
194	10
195	255
196	84
197	8
198	1
