Mass Spectrum: 7-Oxabicyclo[2.2.1]hept-5-en-2-one
Formula: C6H6O2
CAS: 95530-78-2
Molecular weight: 110
m/z	intensity
36	1
37	26
38	64
39	364
40	182
41	14
42	103
43	19
44	1
45	13
49	6
50	41
51	48
52	21
53	150
54	49
55	19
56	4
61	5
62	5
63	7
64	1
65	2
66	2
67	2
68	999
69	45
70	2
71	1
74	1
75	3
77	1
81	79
82	34
83	2
84	0
95	5
105	0
110	20
111	1
