Mass Spectrum: cis,cis-2,8-Dimethylspiro[5.5]undecane
Formula: C13H24
CAS: 95530-75-9
Molecular weight: 180
m/z	intensity
55	580
67	240
68	110
81	640
82	220
95	999
96	170
109	86
110	140
123	48
124	37
137	360
151	11
165	5
180	160
181	23
