Mass Spectrum: trans,trans-2,8-Dimethylspiro[5.5]undecane
Formula: C13H24
CAS: 95530-76-0
Molecular weight: 180
m/z	intensity
55	400
67	230
68	110
81	500
82	160
95	999
96	180
109	62
110	150
123	48
124	14
137	340
151	5
165	33
180	200
181	29
