Mass Spectrum: cis,trans-2,9-Dimethylspiro[5.5]undecane
Formula: C13H24
CAS: 95530-74-8
Molecular weight: 180
m/z	intensity
55	580
67	480
68	200
81	999
82	260
95	710
96	110
109	110
110	520
123	410
124	46
137	210
151	13
165	13
180	220
181	31
