Mass Spectrum: 2-Methoxy-4-(1,1-ethylenedioxyethyl)tropone
Formula: C12H14O4
CAS: 95592-70-4
Molecular weight: 222
m/z	intensity
14	1
15	20
26	3
27	11
28	8
29	10
30	1
31	4
37	3
38	18
39	36
40	2
41	5
42	9
43	437
44	11
45	9
46	7
49	1
50	24
51	37
52	11
53	14
54	2
55	5
57	1
59	1
60	4
61	3
62	13
63	54
64	44
65	41
66	18
67	4
68	1
69	2
73	8
74	9
75	9
76	18
77	69
78	18
79	17
80	3
81	2
82	1
85	1
86	4
87	999
88	57
89	18
90	9
91	46
92	54
93	9
94	4
95	4
96	1
98	1
99	2
100	9
101	2
102	5
103	8
104	10
105	20
106	5
107	64
108	8
109	2
115	1
117	2
118	5
119	18
120	12
121	51
122	9
123	3
131	4
132	3
133	21
134	7
135	179
136	33
137	5
138	1
139	1
141	1
145	6
146	1
147	15
148	8
149	23
150	11
151	5
160	1
161	4
162	3
163	10
164	6
165	2
177	372
178	60
179	244
180	28
181	3
189	5
191	55
192	22
193	10
194	2
207	60
208	7
209	1
221	4
222	343
223	48
224	6
