Mass Spectrum: Hexanoic acid, 6-(benzoylamino)-
Formula: C13H17NO3
CAS: 956-09-2
Molecular weight: 235
m/z	intensity
36	11
38	11
39	34
40	17
41	54
42	19
43	23
44	44
45	46
50	47
51	58
52	9
53	9
54	7
55	24
56	26
57	7
59	7
60	14
67	6
69	9
70	6
73	8
74	6
76	19
77	362
78	30
79	9
84	9
105	999
106	80
107	6
112	8
121	9
122	48
130	16
134	147
135	91
136	8
148	58
149	11
162	69
163	12
176	60
177	8
235	58
236	8
