Mass Spectrum: 2-Propen-1-one, 1-(4-chlorophenyl)-3-phenyl-
Formula: C15H11ClO
CAS: 956-02-5
Molecular weight: 242
m/z	intensity
34	10
38	25
39	90
40	11
41	16
44	17
50	294
51	510
52	66
53	50
55	18
62	21
63	103
64	7
65	26
69	12
73	24
74	100
75	546
76	398
77	999
78	96
85	41
86	13
87	33
89	384
90	18
101	22
102	272
103	938
104	50
105	26
109	9
111	790
112	62
113	216
114	8
130	6
131	686
132	51
136	12
138	40
139	561
140	66
141	188
151	20
152	15
164	6
165	9
166	11
176	35
177	44
178	250
179	196
180	20
205	8
207	565
208	97
214	12
240	10
241	953
242	724
243	371
244	225
245	28
