Mass Spectrum: p-Nitrophenyl hexanoate
Formula: C12H15NO4
CAS: 956-75-2
Molecular weight: 237
m/z	intensity
15	3
17	2
18	7
26	8
27	79
28	12
29	103
30	24
31	1
32	1
37	3
38	14
39	58
40	8
41	126
42	45
43	839
44	25
45	2
50	14
51	8
52	8
53	10
54	4
55	99
56	12
57	8
58	1
59	2
60	17
61	3
62	7
63	27
64	23
65	32
66	3
67	2
68	2
69	21
70	14
71	467
72	23
73	9
74	12
75	9
76	12
77	3
78	3
79	5
80	5
81	11
82	1
83	7
87	5
88	3
91	8
92	7
93	15
94	3
96	1
97	5
98	13
99	999
100	62
101	5
105	2
106	2
107	9
108	1
109	23
110	1
119	1
120	2
121	1
122	6
123	23
124	2
135	1
136	3
139	20
140	4
152	1
166	2
178	2
180	1
181	9
182	1
194	2
208	2
237	3
