Mass Spectrum: Benzaldehyde benzoylhydrazone
Formula: C14H12N2O
CAS: 956-07-0
Molecular weight: 224
m/z	intensity
26	3
27	7
28	9
37	5
38	8
39	21
40	2
41	1
43	2
44	1
49	3
50	47
51	80
52	17
53	2
57	1
61	2
62	5
63	16
64	9
65	23
66	2
73	3
74	11
75	23
76	125
77	373
78	31
79	1
86	1
87	1
88	2
89	19
90	11
91	5
92	13
93	2
99	3
100	1
101	1
102	7
103	374
104	53
105	999
106	84
107	5
118	7
119	9
120	2
121	403
122	32
123	2
147	11
148	1
152	1
165	2
166	1
167	1
178	2
180	2
223	6
224	52
225	9
