Mass Spectrum: Tetracosane-7,9-dione
Formula: C24H46O2
CAS: 95605-24-6
Molecular weight: 366
m/z	intensity
18	2
29	25
40	6
41	112
42	21
43	408
44	16
45	10
53	16
55	135
56	22
57	140
58	25
67	21
68	28
69	156
70	15
71	106
81	41
82	23
83	59
84	64
85	152
86	17
91	20
94	48
95	75
97	103
98	46
100	634
101	48
102	9
106	10
109	113
110	30
111	46
112	50
113	999
114	88
119	93
123	21
124	40
125	14
128	75
134	48
136	14
137	40
138	47
151	15
152	84
153	16
154	10
155	364
156	17
159	9
161	6
163	6
166	9
170	303
171	73
172	10
177	13
179	22
183	92
184	10
189	8
193	53
194	10
196	7
197	16
202	4
208	145
209	26
212	20
213	6
214	10
220	104
221	43
226	7
234	8
236	8
237	5
238	27
239	175
240	28
251	4
252	3
254	4
255	4
263	32
275	3
278	89
279	19
280	5
281	154
282	38
283	8
285	3
286	3
294	4
296	14
297	6
299	2
301	3
305	5
309	28
310	5
314	3
319	2
323	7
325	4
339	2
341	2
342	3
344	2
348	51
349	10
351	6
352	2
353	2
364	2
365	5
366	32
367	7
