Mass Spectrum: Tricosane-6,8-dione
Formula: C23H44O2
CAS: 95605-23-5
Molecular weight: 352
m/z	intensity
27	7
28	1
29	34
30	1
31	1
38	1
39	17
40	4
41	149
42	34
43	416
44	15
45	3
50	1
51	2
52	1
53	16
54	13
55	196
56	42
57	168
58	53
59	13
60	2
61	1
62	1
63	2
65	4
66	3
67	58
68	25
69	198
70	44
71	478
72	35
73	4
74	1
75	1
76	1
77	11
78	3
79	18
80	43
81	70
82	24
83	95
84	68
85	175
86	13
87	4
89	1
90	1
91	10
92	2
93	13
94	27
95	85
96	31
97	121
98	73
99	999
100	786
101	56
102	7
103	4
104	1
105	6
106	2
107	11
109	39
110	14
111	42
112	26
113	164
114	105
115	36
116	5
117	6
118	1
119	5
120	2
121	15
122	6
123	56
124	32
125	21
126	3
128	9
129	16
130	35
131	8
132	2
133	4
134	3
135	10
136	5
137	19
138	137
139	25
140	11
141	446
142	47
143	8
145	1
147	11
148	6
149	7
150	3
151	8
152	5
153	5
154	9
155	5
156	369
157	92
158	9
159	1
161	1
162	1
163	2
164	2
165	5
167	2
168	2
169	72
170	11
171	1
172	1
175	4
176	1
177	2
178	2
179	5
180	12
181	3
182	6
183	9
189	1
190	4
191	1
193	7
194	20
195	6
196	3
198	22
199	3
203	2
204	1
207	4
208	2
209	2
212	4
213	2
218	1
219	1
220	75
221	17
222	2
223	1
225	5
234	1
235	4
236	5
237	2
238	15
239	101
240	18
241	2
245	1
255	1
260	2
261	1
263	24
264	5
265	2
267	2
269	1
278	47
279	11
280	1
281	107
282	21
283	2
284	1
287	1
291	3
292	3
294	1
295	1
296	12
297	3
302	1
303	1
309	27
310	9
311	1
315	1
316	2
323	4
324	1
330	1
334	27
335	7
336	1
337	2
351	4
352	15
353	5
