Mass Spectrum: Perfluoro 2,4-dimethylheptan-3-one
Formula: C9F18O
CAS: 95639-15-9
Molecular weight: 466
m/z	intensity
31	100
43	2
44	9
46	9
47	9
50	28
51	5
55	4
62	5
69	999
71	12
74	10
78	3
81	23
82	4
86	1
90	4
93	81
94	2
97	69
100	120
105	3
109	49
110	1
112	16
113	2
117	5
119	223
124	8
128	17
131	103
132	2
143	11
147	12
148	1
150	25
151	2
155	3
159	36
162	11
169	285
178	3
181	75
182	2
193	4
197	339
198	13
199	1
200	1
205	1
209	8
212	1
219	18
220	1
231	6
243	4
247	9
259	4
262	1
269	21
270	1
281	5
293	1
297	134
298	9
309	2
347	4
359	1
381	1
397	2
447	1
