Mass Spectrum: (2S,2'S)-2,2'-Bis[1,4,7,10-tetraoxacyclododecane]
Formula: C16H30O8
CAS: 95637-56-2
Molecular weight: 350
m/z	intensity
51	51
54	37
55	213
56	103
57	536
58	355
59	510
60	36
68	35
69	232
70	161
71	458
72	200
73	968
74	90
75	129
81	110
82	40
83	123
84	54
85	123
87	999
88	200
89	580
90	36
96	381
97	97
98	25
99	245
100	65
101	155
102	44
103	97
105	129
106	20
113	103
114	29
115	103
117	174
118	16
122	84
123	23
131	103
132	13
133	194
134	16
147	34
149	103
150	14
159	54
160	10
161	190
162	24
174	77
175	232
176	23
200	47
201	41
202	10
247	16
262	13
263	13
279	10
350	129
351	32
