Mass Spectrum: (1S,1'S)-1,1'-Bis[2,5,8,11,14,17-hexaoxacyclooctadecane]
Formula: C24H46O12
CAS: 95637-58-4
Molecular weight: 526
m/z	intensity
50	12
51	13
53	13
54	15
55	99
56	47
57	199
58	249
59	399
60	29
61	133
62	36
63	616
64	22
65	26
67	33
68	18
69	124
70	68
71	266
72	183
73	999
74	83
75	99
77	28
78	458
79	124
80	27
81	44
82	15
83	64
84	29
85	47
86	249
87	666
88	174
89	749
90	49
91	24
94	56
95	36
96	19
97	36
98	16
99	191
100	51
101	149
102	37
103	116
104	16
105	29
107	16
112	33
113	99
114	22
115	91
116	25
117	199
118	17
119	17
129	30
130	19
131	116
132	18
133	249
134	21
135	18
143	22
144	12
145	26
146	7
147	24
149	308
150	29
151	12
157	29
158	9
159	29
160	7
161	83
162	10
163	10
167	10
174	20
175	64
176	10
177	56
178	9
179	8
187	49
188	12
189	9
191	8
201	20
202	6
203	12
205	24
218	12
219	20
221	10
231	14
232	4
233	6
234	4
235	4
239	5
240	4
245	15
247	10
249	46
250	9
251	10
261	6
262	11
263	13
264	3
265	6
275	249
276	41
277	14
279	8
289	9
290	3
291	4
293	8
306	4
307	5
319	7
320	3
349	3
350	4
526	14
527	4
528	2
