Mass Spectrum: 3-Hydroxy-pyrrolidine-1-carboxylic acid, benzyl ester
Formula: C12H15NO3
CAS: 95656-88-5
Molecular weight: 221
m/z	intensity
12	1
15	77
16	2
17	1
18	6
19	1
26	15
27	60
28	90
29	82
30	65
31	32
37	3
38	14
39	115
40	17
41	89
42	222
43	107
44	125
45	8
50	23
51	63
52	17
53	6
54	5
55	8
56	30
57	37
58	25
59	4
61	2
62	12
63	45
65	196
66	12
67	3
68	19
69	7
70	5
71	7
72	1
74	5
75	3
76	5
77	52
78	11
79	18
80	2
84	3
86	63
87	18
89	45
91	999
92	89
93	4
100	9
104	12
105	12
106	1
107	8
108	3
114	66
115	5
118	2
130	31
131	2
132	14
133	23
134	3
176	7
177	1
221	35
222	5
