Mass Spectrum: Benzofurane-3-carboxylic acid, 5-hydroxy-4-dimethylaminomethyl-2-phenyl-, ethyl ester
Formula: C20H21NO4
CAS: 95696-19-8
Molecular weight: 339
m/z	intensity
35	5
36	21
37	1
38	10
39	39
40	14
41	41
42	532
43	202
44	999
45	471
46	16
50	12
51	32
52	12
53	17
54	53
55	32
56	9
57	16
58	411
59	16
62	7
63	29
64	5
65	11
66	2
67	4
68	2
69	1
72	4
74	8
75	16
76	15
77	85
78	21
79	5
80	0
81	3
82	27
83	4
84	0
86	11
87	23
88	10
89	25
90	7
91	10
92	4
94	1
96	0
98	7
99	7
100	4
101	6
102	16
103	6
104	3
105	39
106	4
109	1
110	1
111	3
112	2
113	26
114	10
115	44
116	6
117	5
118	3
125	14
126	45
127	28
128	13
129	11
130	1
137	12
138	21
139	155
140	31
141	11
142	1
144	0
145	1
147	19
148	1
149	1
150	25
151	39
152	120
153	57
154	11
155	14
156	1
158	0
159	0
160	2
161	6
162	4
163	56
164	78
165	367
166	79
167	27
168	11
169	2
172	1
174	1
176	9
177	11
178	18
179	7
180	10
181	63
182	12
183	5
189	1
190	4
191	5
192	10
193	53
194	65
195	23
196	2
204	2
205	4
206	6
207	4
208	6
209	10
210	18
211	3
218	1
219	8
220	9
221	56
222	75
223	42
224	8
225	0
233	1
235	5
236	10
237	74
238	44
239	10
247	1
248	5
249	23
250	51
251	45
252	2
253	1
262	4
265	115
266	64
267	19
268	5
278	120
279	25
280	4
292	5
294	363
295	84
296	26
297	3
308	1
310	51
311	10
322	1
324	513
325	103
326	14
339	559
340	125
341	19
