Mass Spectrum: 7-Aminocephalosporanic acid
Formula: C10H12N2O5S
CAS: 957-68-6
Molecular weight: 272
m/z	intensity
41	72
42	149
43	999
44	81
45	405
47	32
60	73
61	7
74	315
75	37
112	35
138	45
139	191
156	221
157	27
185	114
186	13
216	117
217	12
