Mass Spectrum: Benzo[1,2-b:3,4-b']difuran-2(3H)-one, 4-ethenyl-3a,4,5,8b-tetrahydro-4,8-dimethyl-3-methylene-, [3aS-(3a.alpha.,4.alpha.,8b.alpha.)]-
Formula: C15H16O3
CAS: 957-66-4
Molecular weight: 244
m/z	intensity
40	330
41	500
43	270
50	100
51	420
52	210
53	470
54	70
55	200
62	60
63	230
64	140
65	650
66	240
67	300
68	120
69	70
74	60
75	90
76	90
77	900
80	130
89	170
91	860
93	999
94	370
95	170
96	70
102	190
103	350
104	190
105	550
108	370
115	370
116	100
117	130
119	140
121	320
122	100
123	130
125	140
127	120
128	250
131	120
133	250
137	70
141	140
142	100
143	90
145	170
147	130
148	800
149	100
153	40
155	80
157	70
159	100
161	170
169	50
171	80
173	70
183	90
185	100
187	50
189	70
197	40
198	80
199	200
200	40
201	70
202	40
214	60
215	40
226	50
229	50
244	999
245	170
246	10
