Mass Spectrum: (-)-(5)-Bromouridine
Formula: C9H11BrN2O6
CAS: 957-75-5
Molecular weight: 322
m/z	intensity
24	20
25	72
26	180
27	343
28	999
29	271
30	50
31	155
32	4
34	3
36	14
37	42
38	254
39	420
40	586
41	347
42	681
43	429
44	509
45	50
46	23
47	6
48	2
49	7
50	36
51	129
52	40
53	96
54	64
55	146
56	55
57	57
58	19
59	3
60	24
61	13
62	4
63	5
64	26
65	121
66	112
67	284
68	287
69	852
70	87
71	32
72	13
73	29
74	13
75	3
76	4
77	10
78	9
79	271
80	783
81	268
82	840
83	16
84	44
85	28
86	15
87	5
88	1
89	4
90	3
91	41
92	75
93	41
94	186
95	76
96	76
97	38
98	14
99	7
100	5
101	4
102	4
103	2
104	43
105	7
106	43
107	10
108	32
109	9
110	49
111	20
112	966
113	61
114	24
115	4
116	1
117	53
118	33
119	64
120	381
121	29
122	324
123	12
124	2
125	2
126	4
127	18
128	25
129	1
130	2
131	2
132	2
133	10
134	5
135	9
136	6
137	4
138	1
139	2
141	2
143	2
144	9
145	53
146	22
147	623
148	46
149	619
150	36
151	4
152	3
157	1
159	6
160	3
161	6
162	6
163	4
164	5
165	2
166	1
168	2
172	129
173	9
174	139
175	13
176	11
177	5
178	9
179	2
180	2
190	475
191	28
192	480
193	26
194	7
195	5
206	1
214	2
220	2
238	9
254	2
256	3
