Mass Spectrum: Androstan-3,17-diol diacetate
Formula: C23H36O4
CAS: 95720-72-2
Molecular weight: 376
m/z	intensity
41	131
43	999
44	6
45	16
47	3
49	25
51	10
53	34
55	178
57	32
58	0
59	2
61	8
65	11
67	144
68	28
69	54
70	2
71	18
72	1
73	0
77	46
79	177
80	23
81	210
82	18
83	24
84	18
85	5
86	13
87	1
88	1
91	114
93	198
94	140
95	135
96	16
97	23
98	4
99	3
101	1
103	4
104	9
105	121
106	80
107	208
108	159
109	68
110	6
111	14
112	1
113	0
115	5
116	2
117	23
118	14
119	68
120	45
121	83
122	35
123	38
124	6
125	3
127	1
128	2
129	7
130	3
131	47
132	11
133	96
134	36
135	57
136	11
137	7
138	1
139	1
141	2
142	1
143	11
144	4
145	67
146	48
147	146
148	171
149	120
150	18
151	7
152	0
153	2
155	1
157	9
158	6
159	50
160	40
161	65
162	39
163	18
164	3
165	3
167	0
169	2
171	10
172	4
173	30
174	21
175	25
176	10
177	4
178	0
179	2
183	1
185	18
186	8
187	33
188	14
189	9
190	1
191	1
193	0
197	1
199	25
200	11
201	45
202	77
203	15
204	2
205	0
206	5
207	2
208	6
209	1
211	0
213	24
214	16
215	146
216	27
217	22
218	4
220	27
221	5
222	0
225	0
227	9
228	11
229	5
230	21
231	6
233	7
234	8
235	1
239	3
240	0
241	205
242	36
243	3
245	1
246	2
247	4
248	6
249	1
255	13
256	204
257	63
259	24
260	13
261	10
262	100
263	16
264	2
273	8
274	20
275	14
276	3
277	1
287	4
288	8
289	1
290	2
301	84
302	19
303	2
306	1
314	7
315	4
316	395
317	98
318	13
319	2
333	1
358	0
361	1
376	2
