Mass Spectrum: d-Glucosamine, N-benzoyl-3-deoxy-1-O-methyl-
Formula: C14H19NO5
CAS: 95769-63-4
Molecular weight: 281
m/z	intensity
41	21
42	13
43	54
44	28
45	24
46	1
50	9
51	36
52	3
53	4
54	11
55	17
56	19
57	9
58	3
59	4
60	4
61	19
62	0
63	0
64	1
65	2
66	2
67	1
68	9
69	10
70	7
71	13
72	5
73	17
74	15
75	4
76	15
77	234
78	18
79	6
80	6
81	7
82	14
83	6
84	3
85	2
86	4
87	16
88	4
89	1
90	0
91	3
92	1
93	3
94	5
95	0
96	1
97	6
98	26
99	6
100	7
101	0
103	2
105	999
106	71
107	5
109	0
110	6
111	4
112	2
113	0
114	3
115	1
116	4
117	2
118	3
119	19
120	2
122	117
123	10
124	1
127	0
128	5
129	1
130	5
131	3
132	1
133	0
134	22
135	8
136	0
140	17
141	3
142	7
143	1
144	1
145	0
146	18
147	90
148	106
149	14
150	3
158	1
160	83
161	10
162	1
163	0
172	3
173	1
174	2
175	3
176	2
177	11
178	1
184	0
185	7
186	17
187	3
188	2
189	0
190	1
191	0
192	1
200	5
201	2
202	6
203	61
204	123
205	16
206	2
213	0
218	22
219	6
220	9
221	3
232	1
248	5
249	63
250	85
251	12
252	1
264	2
281	4
282	0
