Mass Spectrum: Silane, [[5,5-dimethyl-4-methylene-2-(trimethylsilyl)-1-cyclopenten-1-yl]methoxy]trimethyl-
Formula: C15H30OSi2
CAS: 95798-15-5
Molecular weight: 282
m/z	intensity
27	6
29	6
31	7
39	7
40	1
41	14
42	1
43	30
44	15
45	124
46	8
47	15
51	4
52	3
53	7
54	1
55	7
56	1
57	6
58	9
59	58
60	5
61	11
62	0
63	1
64	0
65	5
66	8
67	7
68	1
69	7
70	2
71	5
72	12
73	999
74	81
75	194
76	14
77	22
78	6
79	14
80	1
81	4
82	1
83	12
84	1
85	4
87	2
88	0
89	3
91	19
92	4
93	5
94	0
95	4
96	2
97	6
98	1
99	1
101	2
102	2
103	71
104	12
105	331
106	32
107	4
108	0
109	4
110	0
111	2
113	1
115	4
116	2
117	15
118	13
119	69
120	74
121	39
122	4
123	2
125	1
126	2
127	1
129	1
130	0
131	30
132	4
133	38
134	6
135	10
136	1
137	1
141	0
143	2
144	1
145	4
146	2
147	362
148	57
149	38
150	4
151	4
152	0
155	1
157	2
159	3
160	0
161	6
162	1
163	9
164	3
165	1
166	2
167	7
168	1
169	0
173	0
175	1
176	1
177	23
178	5
179	51
180	8
181	3
182	0
190	0
191	1
192	9
193	56
194	23
195	73
196	13
197	3
207	3
208	38
209	136
210	27
211	7
212	0
221	0
239	1
251	1
252	1
253	2
264	0
265	1
267	102
268	28
269	11
270	1
281	0
282	65
283	19
284	7
285	1
