Mass Spectrum: 3-Hydroxy-piperidine-1-carboxylic acid, benzyl ester
Formula: C13H17NO3
CAS: 95798-22-4
Molecular weight: 235
m/z	intensity
12	2
13	1
14	3
15	34
16	9
17	59
18	216
19	3
25	1
26	18
27	90
28	157
29	84
30	87
31	40
32	2
33	1
35	1
36	1
37	11
38	25
39	128
40	16
41	88
42	77
43	148
44	66
45	7
47	1
48	1
49	11
50	59
51	122
52	34
53	29
54	13
55	45
56	25
57	26
58	6
59	1
60	1
61	7
62	19
63	55
64	15
65	174
66	12
67	9
68	7
69	11
70	11
71	68
72	7
73	5
74	15
75	8
76	8
77	168
78	35
79	231
80	24
81	4
82	28
83	8
84	40
85	8
86	7
87	4
88	3
89	52
90	35
91	999
92	80
93	4
95	1
96	1
97	1
98	3
100	86
101	25
102	2
104	6
105	14
106	4
107	100
108	142
109	13
110	1
111	2
114	19
115	2
116	1
117	1
118	3
119	2
120	3
126	11
128	101
129	8
130	1
131	2
132	3
134	21
135	2
144	32
145	3
146	6
147	1
160	1
172	1
173	0
174	1
178	1
190	10
191	1
235	21
236	3
237	0
