Mass Spectrum: Silane, (2-ethyl-5,5-dimethyl-4-methylene-1-cyclopenten-1-yl)trimethyl-
Formula: C13H24Si
CAS: 95798-05-3
Molecular weight: 208
m/z	intensity
27	11
28	8
29	12
31	18
39	16
40	0
41	28
42	2
43	50
44	15
45	109
46	8
47	4
51	5
52	2
53	12
54	2
55	12
56	1
57	9
58	11
59	155
60	11
61	5
63	2
65	7
66	2
67	13
68	3
69	18
70	3
71	7
72	6
73	999
74	104
75	67
76	2
77	20
78	4
79	13
80	2
81	12
82	5
83	30
84	2
85	9
86	1
87	3
88	2
89	11
91	27
92	4
93	10
95	7
96	4
97	18
98	2
99	6
103	4
104	2
105	27
106	4
107	13
108	1
109	7
110	1
111	11
115	4
116	2
117	7
118	2
119	73
120	8
121	18
122	2
123	6
131	3
132	1
133	19
134	80
135	50
136	4
137	3
139	4
145	3
147	4
149	11
150	2
151	3
159	3
161	2
163	6
164	1
165	1
175	1
177	4
179	5
193	110
194	15
195	5
208	60
209	4
