Mass Spectrum: .alpha., .alpha.'-Dibromodibenzyl ketone
Formula: C15H12Br2O
CAS: 958-79-2
Molecular weight: 366
m/z	intensity
17	2
18	7
27	4
28	5
36	1
37	1
38	7
39	32
40	6
41	3
44	2
50	14
51	32
52	7
53	1
55	1
57	1
61	2
62	16
63	65
64	23
65	24
66	1
69	3
74	8
75	12
76	64
77	23
78	6
79	51
80	157
81	50
82	152
83	2
85	1
86	4
87	7
88	24
89	238
90	282
91	228
92	15
94	6
95	3
98	2
99	1
100	1
101	2
102	13
103	9
104	9
105	6
106	1
110	1
111	1
113	2
114	1
115	10
116	1
118	999
119	173
120	12
122	1
125	1
126	5
127	4
128	4
129	1
130	2
131	5
135	1
137	1
139	8
140	1
141	1
143	1
145	1
149	1
150	7
151	17
152	32
153	7
154	1
163	5
164	5
165	89
166	15
167	3
168	2
169	522
170	42
171	513
172	38
173	1
174	1
175	3
176	29
177	27
178	188
179	352
180	326
181	51
182	4
183	1
189	4
190	1
191	7
192	11
193	2
196	7
197	19
198	8
199	19
200	2
205	4
206	8
207	60
208	163
209	38
210	18
211	4
259	7
260	2
261	7
262	1
286	4
287	88
288	22
289	86
290	19
291	2
366	23
367	4
368	45
369	7
370	21
371	3
