Mass Spectrum: 5.alpha.,6.alpha.-Epoxycholest-7-en-3.beta.-ol
Formula: C27H44O2
CAS: 95841-65-9
Molecular weight: 400
m/z	intensity
41	340
42	63
43	999
44	197
53	32
55	224
56	35
57	219
65	22
67	66
69	93
71	71
77	45
78	21
79	75
81	98
83	49
91	96
93	86
94	24
95	97
97	32
105	85
106	24
107	66
108	26
109	48
115	24
117	48
119	52
121	49
122	19
123	25
128	24
129	36
131	62
133	56
134	26
135	36
141	28
142	20
143	38
145	69
147	55
149	24
152	59
153	23
155	32
157	52
158	22
159	73
160	23
161	55
165	21
167	19
169	28
171	32
173	41
174	22
175	45
181	23
183	35
185	32
187	28
193	19
195	30
196	24
197	64
198	21
199	31
201	21
209	43
210	19
211	31
213	32
215	33
225	26
227	40
251	66
269	30
288	23
299	33
301	31
313	31
340	25
343	59
349	56
350	19
357	44
364	59
365	29
367	120
368	33
369	21
382	75
383	23
385	62
386	19
400	215
401	74
