Mass Spectrum: 6.alpha.-[(2-Hydroxyethyl)thio]cholest-7-ene-3.beta.,5.beta.-diol
Formula: C29H50O3S
CAS: 95841-74-0
Molecular weight: 478
m/z	intensity
41	418
42	93
43	999
44	342
45	407
46	109
47	144
48	90
53	48
55	446
56	77
57	438
58	59
59	102
60	142
61	64
63	38
64	91
67	118
69	296
70	43
71	191
76	72
77	103
78	75
79	157
81	198
82	47
83	161
85	57
91	147
92	138
93	136
94	57
95	236
96	39
97	144
99	34
105	198
106	38
107	105
108	41
109	118
110	70
111	85
117	69
119	80
121	121
122	52
123	71
124	40
125	33
128	39
129	43
131	75
133	68
134	33
135	63
137	59
139	49
141	33
143	48
145	81
147	67
149	42
154	53
155	37
157	63
159	85
161	68
171	39
173	66
175	56
185	39
187	37
197	52
201	33
215	37
251	49
269	33
287	39
345	52
364	61
365	156
366	48
367	35
382	43
383	101
384	42
385	37
397	126
398	49
400	120
401	59
415	51
416	43
427	93
442	91
460	112
461	36
