Mass Spectrum: 5.beta.,6.beta.-Epoxy-7.alpha.-bromocholestan-3.beta.-ol
Formula: C27H45BrO2
CAS: 95841-70-6
Molecular weight: 480
m/z	intensity
41	615
42	117
43	999
44	269
45	86
53	94
55	693
56	83
57	507
58	29
60	50
65	50
66	53
67	270
68	62
69	328
70	42
71	237
77	128
78	29
79	226
80	59
81	424
82	80
83	256
84	27
85	52
91	214
92	39
93	299
94	88
95	439
96	48
97	113
99	28
105	210
106	45
107	228
108	46
109	170
110	39
111	95
117	60
119	137
120	36
121	174
122	45
123	219
124	27
128	47
129	41
131	94
133	132
134	40
135	124
137	68
139	61
141	77
143	45
145	110
147	122
149	70
151	36
157	68
159	96
161	82
163	55
165	26
171	41
173	60
175	87
177	37
185	49
187	44
189	44
191	25
193	40
199	44
201	43
203	27
205	27
207	28
211	31
213	27
215	35
225	35
227	36
229	40
243	42
245	27
247	35
330	28
355	40
365	83
366	30
382	257
384	86
401	557
402	176
403	29
