Mass Spectrum: 2,5-Dihydro-2,2,4-trimethyl-5-oxo-N-phenylfuran-3-carbonamide
Formula: C14H15NO3
CAS: 95845-71-9
Molecular weight: 245
m/z	intensity
15	4
17	3
26	1
27	19
28	12
29	8
31	1
37	1
38	7
39	77
40	10
41	31
42	3
43	113
44	4
50	7
51	35
52	9
53	27
54	5
55	7
57	3
59	3
62	2
63	12
64	12
65	66
66	36
67	999
68	52
69	4
74	1
75	1
76	3
77	90
78	9
79	13
80	4
81	12
82	8
83	14
85	1
89	1
90	2
91	11
92	28
93	864
94	82
95	9
96	5
97	4
100	5
101	4
103	3
104	3
105	1
106	5
107	1
109	14
110	2
111	2
114	1
115	44
116	3
117	2
118	5
119	6
120	21
121	2
123	2
124	3
125	42
126	28
127	2
128	2
129	1
130	10
131	4
132	3
134	2
137	30
138	7
139	3
142	3
143	5
144	3
146	4
151	1
152	2
153	949
154	87
155	9
156	3
157	2
158	28
159	11
160	29
161	3
170	1
171	2
172	8
173	4
174	14
175	4
182	2
183	1
184	11
185	1
186	3
187	3
188	8
189	1
198	2
199	1
200	50
201	9
202	47
203	7
212	25
213	5
214	1
216	100
217	42
218	5
226	1
227	8
228	13
229	3
230	132
231	19
232	2
244	1
245	818
246	138
247	15
248	1
