Mass Spectrum: 5.beta.,6.beta.-Epoxy-7.alpha.-bromocholestane-3.beta.-benzoate
Formula: C34H49BrO3
CAS: 95841-69-3
Molecular weight: 584
m/z	intensity
41	336
42	86
43	745
44	564
45	118
50	104
51	178
52	32
53	43
55	251
56	70
57	275
59	25
60	62
65	31
67	106
69	140
70	26
71	114
73	48
74	40
76	27
77	352
78	91
79	111
80	46
81	213
82	44
83	68
85	30
91	112
93	92
94	32
95	153
96	21
97	45
99	29
105	999
106	115
107	88
108	22
109	74
111	26
115	39
117	75
118	42
119	98
120	28
121	54
122	240
123	82
124	34
128	51
129	83
130	27
131	81
133	56
134	22
135	125
136	32
137	30
141	59
142	50
143	160
144	53
145	137
146	34
147	40
149	70
150	28
155	37
157	89
158	88
159	79
160	22
161	34
163	24
169	26
171	26
173	22
175	29
183	25
197	27
199	28
211	34
213	22
247	49
253	43
351	66
366	404
367	360
368	126
369	25
383	36
384	20
398	704
399	213
400	35
488	54
489	24
