Mass Spectrum: Cholest-7-en-3.beta.,5.beta.-diol-6.beta.-benzoate
Formula: C34H50O4
CAS: 95841-72-8
Molecular weight: 522
m/z	intensity
41	185
42	36
43	498
44	90
45	46
50	74
51	118
52	20
53	27
55	178
56	29
57	157
58	11
60	18
65	15
67	50
68	10
69	104
70	13
71	62
73	16
74	22
75	10
76	20
77	281
78	33
79	45
81	70
82	17
83	51
84	13
85	16
91	58
93	51
94	18
95	91
96	12
97	28
104	10
105	999
106	93
107	46
108	11
109	36
110	30
111	18
117	23
119	30
121	51
122	197
123	40
124	15
125	11
128	19
129	16
131	29
133	28
134	14
135	23
137	12
139	12
143	16
145	30
147	26
149	12
157	21
159	36
161	28
171	13
173	22
174	14
175	21
185	11
187	14
197	27
199	11
215	18
227	15
251	28
269	12
287	12
343	14
364	81
365	112
366	30
367	47
368	12
382	34
383	14
385	21
400	64
401	19
471	164
472	66
473	12
486	210
487	79
488	15
504	51
505	20
