Mass Spectrum: 4-Benzoyl-5-hydroxy-3,5-diphenyl-2(5H)-pyrrolone
Formula: C23H17NO3
CAS: 95855-21-3
Molecular weight: 355
m/z	intensity
51	60
77	360
105	999
106	90
129	120
178	40
232	60
250	320
251	110
278	30
337	20
338	30
355	80
