Mass Spectrum: N-Methoxy-14-azadispiro(5,1,5,2)pentadec-9-ene-7,11,15-trione
Formula: C15H19NO4
CAS: 95854-81-2
Molecular weight: 277
m/z	intensity
110	999
136	330
140	30
177	20
190	50
218	20
246	29
249	140
