Mass Spectrum: (2-Benzyloxymethyl-4,5-dimethyl-1,4-cyclohexadienyl)formaldehyde semicarbazone
Formula: C18H23N3O2
CAS: 95866-03-8
Molecular weight: 313
m/z	intensity
15	3
16	24
17	52
18	21
26	3
27	31
28	38
29	18
30	12
31	9
32	1
37	3
38	8
39	69
40	9
41	62
42	31
43	182
44	55
45	8
46	2
49	2
50	28
51	78
52	26
53	41
54	9
55	16
56	7
57	8
58	6
59	6
60	12
61	96
62	9
63	30
64	11
65	141
66	17
67	16
68	5
69	9
70	7
71	6
72	7
73	11
74	11
75	9
76	15
77	246
78	62
79	256
80	39
81	19
82	6
83	4
84	3
85	5
86	33
87	4
88	4
89	40
90	34
91	999
92	134
93	57
94	13
95	9
96	4
97	4
98	2
99	2
100	2
101	7
102	14
103	80
104	46
105	250
106	92
107	276
108	222
109	24
110	4
111	4
112	2
113	2
114	4
115	60
116	53
117	106
118	67
119	278
120	77
121	49
122	31
123	8
124	2
125	2
126	2
127	6
128	13
129	14
130	263
131	152
132	233
133	107
134	118
135	30
136	9
137	6
138	3
139	1
140	2
141	10
142	9
143	17
144	156
145	466
146	356
147	304
148	62
149	102
150	14
151	8
152	3
153	2
154	1
155	5
156	9
157	8
158	17
159	135
160	141
161	219
162	249
163	60
164	12
165	9
166	8
167	3
168	2
169	1
170	2
171	2
172	6
173	207
174	32
175	278
176	39
177	168
178	30
179	879
180	109
181	10
182	2
183	1
184	2
185	3
186	6
187	106
188	38
189	13
190	223
191	34
192	149
193	20
194	9
195	10
196	2
197	1
198	1
199	1
200	1
201	1
202	3
203	33
204	122
205	499
206	80
207	14
208	5
209	3
210	2
211	3
212	1
213	2
214	6
215	1
216	1
217	1
218	2
219	2
220	173
221	31
222	80
223	12
224	4
225	2
226	4
227	1
230	1
231	1
232	1
233	1
234	3
235	2
236	2
237	2
238	4
239	3
240	1
241	2
249	2
250	2
251	2
252	26
253	9
254	60
255	11
256	2
265	1
267	20
268	5
269	2
270	4
271	1
284	2
296	2
311	1
312	1
313	72
314	18
315	3
