Mass Spectrum: 5,6:7,8-Diepoxycholestan-3.beta.-ol
Formula: C27H44O3
CAS: 95864-11-2
Molecular weight: 416
m/z	intensity
41	451
42	95
43	999
44	276
45	49
51	12
53	58
54	19
55	385
56	55
57	244
58	17
59	13
60	29
65	25
66	12
67	125
68	35
69	151
70	25
71	126
77	67
78	17
79	113
80	23
81	151
82	39
83	73
84	17
85	20
91	106
92	20
93	116
94	45
95	147
96	41
97	53
99	12
105	91
106	26
107	111
108	49
109	85
110	32
111	53
112	21
115	16
117	40
118	11
119	44
120	16
121	89
122	30
123	58
124	105
125	31
128	15
129	21
131	31
133	51
134	63
135	106
136	119
137	45
138	10
139	21
141	15
143	16
145	32
147	35
149	28
150	11
151	44
152	838
153	110
154	105
155	20
157	15
159	22
161	36
162	12
163	22
165	15
173	15
175	24
177	12
179	11
187	11
193	11
221	38
264	36
293	42
305	13
315	40
316	13
359	11
373	23
387	11
388	13
401	15
