Mass Spectrum: Boron, 1,5-cyclooctanediyl(2,4-pentanedionato-O,O')-, (t-4)-
Formula: C13H21BO2
CAS: 95890-86-1
Molecular weight: 220
m/z	intensity
29	25
35	0
37	0
38	2
39	66
41	59
42	5
43	763
44	15
45	0
47	0
49	0
51	5
52	3
53	18
54	10
55	23
57	2
58	9
59	2
60	0
61	3
62	1
63	2
64	0
65	26
66	14
67	50
68	5
69	11
71	3
72	1
73	1
74	7
75	9
76	1
77	8
78	1
79	16
80	4
81	10
82	4
83	12
85	4
87	2
88	7
89	3
90	1
91	9
92	6
93	11
94	3
95	5
96	0
97	2
103	1
105	6
106	1
107	4
108	1
109	10
110	83
111	307
112	17
113	0
119	3
123	235
124	999
125	75
126	5
132	1
133	2
134	10
135	46
136	132
137	419
138	136
139	11
148	5
149	33
150	134
151	64
152	27
153	2
159	5
161	1
162	67
163	285
164	79
165	31
166	63
167	7
175	4
176	28
177	107
178	22
179	20
180	0
190	13
191	54
192	9
204	9
205	37
206	4
218	6
219	199
220	763
221	101
222	10
