Mass Spectrum: Oxolamine
Formula: C14H19N3O
CAS: 959-14-8
Molecular weight: 245
m/z	intensity
15	2
18	2
26	4
27	21
28	31
29	40
30	64
31	1
37	2
38	4
39	16
40	3
41	11
42	68
43	11
44	21
45	1
49	2
50	18
51	25
52	8
53	3
54	11
55	19
56	77
57	17
58	91
59	3
61	2
62	5
63	15
64	16
65	6
66	1
67	1
68	3
69	4
70	21
71	33
72	35
73	7
74	5
75	9
76	33
77	53
78	5
79	1
80	1
81	1
82	3
83	4
84	38
86	999
87	61
88	5
89	8
90	3
91	20
92	2
96	2
97	7
98	11
99	32
100	3
101	2
102	4
103	81
104	14
105	2
108	1
109	1
110	2
111	7
112	2
113	1
114	1
115	13
117	3
118	12
119	44
120	4
121	12
122	2
125	16
126	4
127	15
128	9
129	20
130	4
131	110
132	10
133	1
140	1
142	1
143	2
145	28
146	3
147	2
148	2
159	2
160	1
161	5
172	17
173	9
174	10
175	5
199	1
213	1
216	2
230	9
231	1
243	1
244	2
245	1
