Mass Spectrum: 1-Propanol, 3-(benzyloxy)-2-(dibenzylamino)-3-phenyl-
Formula: C30H31NO2
CAS: 959005-30-2
Molecular weight: 437
m/z	intensity
27	1
28	0
29	0
30	0
31	1
36	0
38	0
39	5
40	1
41	4
42	2
43	1
44	2
45	1
50	1
51	6
52	1
53	0
54	0
55	0
56	0
57	0
60	3
62	0
63	3
64	1
65	42
66	2
69	0
70	1
71	0
72	12
73	1
74	0
75	0
76	0
77	15
78	3
79	5
80	0
88	0
89	6
90	6
91	999
92	76
93	3
102	0
103	4
104	3
105	13
106	4
107	3
108	1
114	0
115	1
116	1
117	4
118	9
119	1
120	3
121	0
122	0
128	0
129	0
130	3
131	2
132	2
133	1
134	3
135	0
139	0
141	0
144	0
146	1
147	0
148	21
149	2
150	7
151	0
152	0
153	0
162	5
163	0
164	0
165	2
166	2
167	1
176	0
177	0
178	1
179	1
180	0
181	43
182	6
183	0
192	0
193	0
194	0
195	0
196	1
197	7
198	1
204	0
206	1
207	0
208	7
209	2
210	5
211	1
212	0
222	0
223	0
224	3
225	0
226	0
237	0
238	10
239	3
240	743
241	134
242	13
243	0
252	0
254	0
264	0
286	1
287	0
298	0
299	1
300	2
301	0
302	0
314	5
315	1
316	1
317	0
330	7
331	1
346	0
354	1
355	0
360	0
406	12
407	3
408	0
