Mass Spectrum: Pentafluoropropionic acid, decyl ester
Formula: C13H21F5O2
CAS: 959000-65-8
Molecular weight: 304
m/z	intensity
15	2
26	5
27	81
28	26
29	184
30	6
33	3
37	1
39	114
40	29
41	646
42	215
43	782
47	4
50	6
51	8
52	4
53	59
54	95
55	999
56	613
57	652
58	28
59	3
61	2
62	1
63	1
65	11
66	9
67	125
68	213
69	726
70	609
71	274
72	14
77	7
78	5
79	13
80	4
81	42
82	281
83	546
84	363
85	248
86	15
87	1
91	2
93	3
94	1
95	10
96	74
97	413
98	172
99	36
100	27
101	1
109	6
110	25
111	240
112	192
113	16
114	1
117	2
119	348
120	7
125	6
126	1
128	6
137	1
138	3
139	2
140	79
141	9
145	1
147	56
148	2
149	13
163	1
165	2
167	3
177	8
185	25
186	3
187	1
188	1
191	1
202	1
205	2
243	1
286	1
