Mass Spectrum: Dodecyl isobutyl carbonate
Formula: C17H34O3
CAS: 959067-22-2
Molecular weight: 286
m/z	intensity
15	1
27	25
28	9
29	80
30	3
31	6
39	32
40	9
41	248
42	58
43	235
44	11
45	3
51	1
53	14
54	28
55	247
56	250
57	999
58	47
59	7
63	117
64	1
65	3
66	4
67	46
68	61
69	241
70	157
71	212
72	13
73	19
74	1
75	1
76	4
77	5
78	1
79	5
80	2
81	24
82	99
83	242
84	118
85	170
86	11
87	1
88	1
89	3
90	2
91	1
93	1
94	1
95	11
96	52
97	231
98	82
99	64
100	5
101	1
103	28
104	2
109	5
110	24
111	147
112	53
113	46
114	4
117	10
118	17
119	163
120	9
121	1
123	2
124	10
125	57
126	26
127	21
128	2
137	1
138	7
139	16
140	93
141	10
146	1
159	1
166	2
168	94
169	56
170	6
185	2
213	1
231	1
