Mass Spectrum: Pentafluoropropionic acid, undecyl ester
Formula: C14H23F5O2
CAS: 959014-11-0
Molecular weight: 318
m/z	intensity
15	2
26	5
27	86
28	27
29	205
30	7
31	3
33	3
37	1
39	123
40	31
41	692
42	204
43	816
44	24
47	3
50	6
51	8
52	5
53	65
54	102
55	999
56	543
57	773
58	34
59	3
61	2
62	1
63	1
65	12
66	12
67	150
68	218
69	875
70	574
71	325
72	17
77	8
78	6
79	17
80	5
81	61
82	344
83	638
84	421
85	241
86	15
87	1
91	3
93	4
94	1
95	17
96	117
97	549
98	230
99	55
100	30
101	1
109	7
110	40
111	285
112	107
113	20
114	1
117	2
119	380
120	8
121	1
123	1
124	16
125	122
126	162
127	16
128	7
139	2
145	1
147	59
148	2
149	15
151	1
152	3
154	100
155	12
156	1
163	2
165	3
177	8
181	3
188	1
191	1
199	28
200	4
201	1
202	1
203	1
205	2
243	1
300	2
