Mass Spectrum: Methylphosphonic acid, mono-(2,2-dimethylcyclohexyl) ester
Formula: C9H19O3P
CAS: 959027-86-2
Molecular weight: 206
m/z	intensity
27	80
29	78
31	16
39	99
40	21
41	226
42	26
43	70
45	22
47	46
53	57
54	36
55	117
56	31
57	36
65	33
66	42
67	254
68	106
69	105
77	21
78	35
79	142
80	34
81	172
82	274
83	21
93	15
95	302
96	62
97	999
109	17
110	163
111	27
123	35
175	19
