Mass Spectrum: Heptadecyl heptafluorobutyrate
Formula: C21H35F7O2
CAS: 959085-66-6
Molecular weight: 452
m/z	intensity
26	4
27	55
28	23
29	183
30	5
31	5
33	1
37	1
38	1
39	60
40	15
41	583
42	164
43	954
44	36
45	7
47	1
50	4
51	4
52	2
53	34
54	91
55	807
56	347
57	999
58	45
59	1
61	2
62	1
65	7
66	11
67	114
68	137
69	681
70	306
71	491
72	28
73	2
77	5
78	2
79	13
80	5
81	74
82	281
83	610
84	215
85	298
86	19
87	1
91	2
92	1
93	4
94	2
95	38
96	136
97	601
98	147
99	73
100	23
101	1
109	20
110	63
111	346
112	103
113	40
114	3
119	14
122	1
123	8
124	39
125	163
126	68
127	23
128	2
137	4
138	24
139	56
140	40
141	12
142	1
151	2
152	13
153	22
154	26
155	9
156	1
159	1
166	8
167	12
169	86
170	2
180	5
181	6
182	9
183	3
194	3
195	3
196	4
197	7
199	1
209	2
210	19
211	4
215	2
235	1
236	1
238	38
239	7
240	1
255	1
265	1
283	10
284	2
434	3
435	1
