Mass Spectrum: Trifluoroacetic acid, pentadecyl ester
Formula: C17H31F3O2
CAS: 959010-23-2
Molecular weight: 324
m/z	intensity
15	1
26	3
27	50
28	11
29	148
30	4
33	2
37	1
39	73
40	20
41	597
42	159
43	842
44	19
47	1
50	2
51	6
52	3
53	50
54	103
55	948
56	412
57	999
58	43
59	3
61	2
65	10
66	14
67	141
68	174
69	865
70	410
71	462
72	25
73	1
77	6
78	5
79	17
80	6
81	89
82	342
83	782
84	318
85	274
86	18
87	2
91	3
93	3
94	2
95	43
96	159
97	762
98	218
99	89
100	4
101	1
108	1
109	15
110	75
111	429
112	149
113	29
114	2
115	3
122	1
123	7
124	42
125	187
126	96
127	22
128	1
137	4
138	26
139	53
140	54
141	13
151	1
152	19
153	23
154	29
155	8
156	1
165	1
166	6
167	10
168	12
169	3
170	1
179	1
180	4
181	5
182	46
183	6
193	1
194	1
207	2
208	3
210	36
211	6
212	1
237	2
238	1
255	34
256	6
257	1
306	6
307	1
