Mass Spectrum: isoledene
Formula: C15H24
CAS: 95910-36-4
Molecular weight: 204
m/z	intensity
27	12
29	20
39	62
40	12
41	172
43	20
51	31
52	12
53	67
54	10
55	111
57	18
63	18
64	12
65	79
66	14
67	81
69	31
72	9
77	144
78	49
79	123
80	11
81	126
82	18
89	10
90	4
91	444
92	30
93	140
94	12
95	51
102	9
103	44
104	21
105	999
106	129
107	155
108	26
115	107
116	41
117	134
118	26
119	686
120	87
121	41
122	27
127	16
128	54
129	49
130	26
131	87
132	25
133	349
134	57
135	34
141	12
142	8
143	16
144	9
145	72
146	18
147	161
148	50
149	38
150	8
158	2
159	18
160	20
161	833
162	146
163	12
173	6
174	3
175	12
176	17
180	3
187	3
189	155
190	25
203	3
204	347
205	52
206	6
