Mass Spectrum: Pentafluoropropionic acid, nonyl ester
Formula: C12H19F5O2
CAS: 959100-35-7
Molecular weight: 290
m/z	intensity
15	3
26	8
27	122
28	39
29	253
30	8
33	4
37	1
39	168
40	41
41	779
42	268
43	774
44	22
47	4
50	9
51	10
52	6
53	68
54	94
55	999
56	717
57	484
58	21
59	3
61	2
62	1
63	2
65	12
66	8
67	123
68	237
69	727
70	676
71	369
72	19
77	8
78	8
79	15
80	4
81	35
82	241
83	537
84	416
85	243
86	15
87	1
91	2
93	4
94	1
95	9
96	69
97	547
98	372
99	28
100	38
101	2
109	7
110	1
111	22
112	2
117	2
119	553
120	11
123	2
124	5
125	4
126	112
127	12
128	9
145	1
147	93
148	3
149	19
150	1
153	5
154	1
163	2
165	3
171	45
172	5
175	1
177	14
178	1
187	1
188	2
190	1
191	2
202	1
203	1
204	1
205	5
243	1
272	1
