Mass Spectrum: Heptafluorobutyric acid, undecyl ester
Formula: C15H23F7O2
CAS: 959103-74-3
Molecular weight: 368
m/z	intensity
15	1
26	4
27	73
28	25
29	185
30	6
31	4
33	2
37	1
39	105
40	27
41	642
42	198
43	807
44	31
47	3
50	6
51	8
52	4
53	60
54	100
55	982
56	544
57	817
58	38
59	3
61	2
62	1
63	1
64	1
65	11
66	11
67	150
68	223
69	999
70	578
71	357
72	19
77	7
78	5
79	17
80	5
81	67
82	364
83	659
84	425
85	272
86	17
87	1
91	3
93	6
94	1
95	18
96	124
97	565
98	233
99	57
100	56
101	2
107	1
109	23
110	41
111	295
112	109
113	21
114	2
119	43
120	1
121	1
123	1
124	16
125	128
126	167
127	16
128	1
131	7
139	2
147	2
150	12
151	2
152	2
154	127
155	16
156	1
159	1
169	237
170	8
178	1
181	3
195	1
197	26
198	1
199	23
200	3
213	1
215	3
227	3
238	1
241	1
255	2
350	1
