Mass Spectrum: 3-Bromo-2-methyl-cyclopent-2-enol
Formula: C6H9BrO
CAS: 959289-63-5
Molecular weight: 176
m/z	intensity
26	32
27	219
28	33
29	73
31	26
37	25
38	65
39	334
40	64
41	490
42	38
43	331
44	37
45	13
47	23
48	13
49	16
50	95
51	207
52	103
53	310
54	35
55	107
56	11
57	34
61	17
62	29
63	57
64	15
65	87
66	35
67	175
68	30
69	111
70	9
71	8
73	5
74	16
75	20
76	9
77	322
78	100
79	509
80	329
81	223
82	228
83	16
91	4
93	10
94	8
95	68
96	134
97	999
98	95
99	8
105	8
107	14
109	7
115	5
117	10
119	17
121	18
123	7
131	7
132	5
133	13
134	12
135	10
136	9
143	5
145	6
147	7
149	7
157	4
158	59
159	526
160	123
161	930
162	79
163	525
164	33
172	3
174	25
175	222
176	274
177	237
178	269
179	21
