Mass Spectrum: 2-Hydroxyphenethyl alcohol, 2TMS derivative
Formula: C14H26O2Si2
CAS: 959285-06-4
Molecular weight: 282
m/z	intensity
14	22
15	9
25	13
27	17
29	10
43	39
45	99
47	14
52	7
53	6
56	12
57	6
58	17
59	29
60	11
61	24
62	6
63	13
65	13
71	9
73	999
74	66
75	102
76	13
77	40
83	6
93	10
97	7
101	6
103	511
104	52
105	39
109	6
115	16
117	9
120	24
121	12
131	22
133	29
134	14
135	43
136	7
137	7
147	217
148	55
149	119
150	12
151	20
159	8
161	57
162	6
163	58
164	14
165	7
166	16
175	6
176	4
177	78
178	8
179	299
180	39
181	24
192	25
193	6
194	6
207	8
209	20
218	7
223	6
235	27
240	4
250	6
251	5
267	53
268	19
269	11
282	136
283	20
284	12
