Mass Spectrum: Heptyl propyl carbonate
Formula: C11H22O3
CAS: 959272-47-0
Molecular weight: 202
m/z	intensity
15	4
19	1
26	7
27	135
28	41
29	167
30	11
31	34
32	1
37	1
38	3
39	108
40	29
41	552
42	253
43	894
44	41
45	17
46	1
47	1
51	4
53	25
54	47
55	524
56	544
57	984
58	51
59	74
60	2
61	2
63	999
64	12
65	10
66	2
67	32
68	100
69	385
70	601
71	50
72	2
73	14
74	1
76	7
77	5
81	18
82	7
83	92
84	8
85	2
86	1
87	3
88	1
89	26
90	5
91	1
95	2
96	5
97	121
98	306
99	85
100	7
101	1
103	47
104	88
105	641
106	29
107	5
111	1
113	1
115	8
116	3
117	4
118	1
131	2
132	2
142	1
143	3
144	1
145	11
146	1
159	1
160	1
161	2
