Mass Spectrum: 1-Cyclopentylethanol, TMS derivative
Formula: C10H22OSi
CAS: 959233-05-7
Molecular weight: 186
m/z	intensity
15	1
26	1
27	9
28	3
29	12
31	2
39	20
40	4
41	46
42	14
43	25
44	10
45	52
46	4
47	23
48	1
49	1
50	1
51	3
52	1
53	11
54	4
55	26
56	2
57	6
58	12
59	26
60	6
61	28
62	2
63	2
64	2
65	5
66	3
67	25
68	6
69	15
70	3
71	4
73	487
74	49
75	293
76	21
77	14
78	1
79	5
80	1
81	23
82	2
83	1
85	4
86	1
87	12
88	2
89	3
91	3
93	2
94	1
95	16
96	3
97	3
98	1
99	4
101	18
102	12
103	23
104	2
105	1
109	1
111	2
113	2
115	3
117	999
118	124
119	45
120	2
125	1
127	3
129	9
130	1
141	1
142	1
143	8
144	1
153	1
155	1
169	1
171	113
172	17
173	5
185	4
186	1
