Mass Spectrum: Isobutyl tetradecyl carbonate
Formula: C19H38O3
CAS: 959275-58-2
Molecular weight: 314
m/z	intensity
25	2
26	13
27	48
28	37
29	93
30	7
31	7
37	4
38	6
39	69
40	17
41	288
42	75
43	286
50	4
51	4
52	2
53	19
54	43
55	291
56	264
57	999
58	43
59	5
63	124
65	4
66	5
67	64
68	71
69	256
70	136
71	220
72	10
73	13
76	4
77	5
79	6
80	2
81	34
82	98
83	255
84	106
85	148
86	8
95	18
96	48
97	208
98	65
99	39
103	18
109	6
110	20
111	107
112	42
113	22
117	4
118	8
119	86
120	4
123	2
124	10
125	47
126	25
127	19
130	2
138	5
139	15
140	15
152	2
153	5
154	6
155	4
167	2
168	30
196	21
197	15
