Mass Spectrum: Ninhydrin, 2TMS derivative
Formula: C15H22O4Si2
CAS: 95920-26-6
Molecular weight: 322
m/z	intensity
26	0
27	5
29	25
30	1
31	9
36	0
37	2
38	2
39	3
41	3
42	4
43	87
44	71
45	321
46	25
47	22
48	1
49	1
50	31
51	10
52	3
53	9
54	1
55	12
56	2
57	20
58	19
59	43
60	3
61	9
62	4
63	3
65	4
66	3
67	3
68	1
69	2
70	8
71	13
72	66
73	999
74	90
75	117
76	104
77	41
78	4
79	3
80	1
81	3
82	2
83	5
85	5
86	1
87	6
88	21
89	12
90	6
91	22
92	1
93	10
94	2
95	2
96	1
97	2
98	1
99	2
101	8
102	13
103	25
104	101
105	84
106	8
107	4
108	2
109	1
110	1
111	1
113	3
114	2
115	12
116	3
117	14
118	6
119	60
120	8
121	13
122	2
123	1
124	1
125	1
127	2
128	5
129	5
130	5
131	62
132	90
133	78
134	19
135	34
136	4
137	2
141	1
142	0
143	2
144	4
145	9
146	5
147	418
148	94
149	45
150	10
151	3
157	2
158	1
159	16
160	10
161	15
162	3
163	19
164	3
165	2
173	2
174	1
175	6
176	27
177	35
178	6
179	9
180	1
181	1
182	1
188	4
189	3
190	1
191	4
192	11
193	14
194	3
195	1
201	1
202	2
203	4
204	3
205	12
206	68
207	14
208	4
209	2
213	0
214	0
215	1
216	1
217	3
218	13
219	5
220	1
221	8
222	2
223	3
225	1
230	1
231	3
232	1
233	10
234	24
235	7
236	1
237	2
239	12
240	9
241	4
242	2
243	2
244	1
245	1
246	4
247	3
248	1
249	2
250	2
251	29
252	8
253	4
254	4
255	2
256	2
257	1
258	1
259	3
260	1
261	3
262	4
263	5
264	8
265	680
266	165
267	69
268	18
269	15
270	10
271	5
272	2
273	2
274	12
275	3
276	2
277	3
278	3
279	26
280	8
281	4
282	1
283	1
284	1
285	1
286	1
287	2
288	2
289	2
290	2
291	4
292	4
293	7
294	141
295	33
296	16
297	2
298	1
302	0
303	1
305	1
306	2
307	218
308	52
309	24
310	4
311	1
313	0
314	1
315	0
321	3
322	347
323	92
324	35
325	4
326	1
