Mass Spectrum: 2-Methyl-3-[(trimethylsilyl)oxy]-5-{[(trimethylsilyl)oxy]methyl}pyridine-4-carbaldehyde
Formula: C14H25NO3Si2
CAS: 959230-87-6
Molecular weight: 311
m/z	intensity
15	1
27	2
28	4
29	5
31	3
38	1
39	10
40	2
41	2
42	5
43	27
44	18
45	145
46	10
47	25
48	1
49	1
50	6
51	19
52	12
53	8
54	3
55	9
56	2
57	9
58	9
59	41
60	6
61	17
62	2
63	7
64	4
65	15
66	12
67	6
68	1
69	5
70	4
71	6
72	11
73	999
74	88
75	167
76	13
77	25
78	12
79	10
80	4
81	3
82	2
83	12
84	5
85	8
86	2
87	3
88	1
89	4
90	2
91	11
92	13
93	10
94	6
95	7
96	3
97	10
98	4
99	6
100	6
101	2
102	2
103	11
104	9
105	10
106	7
107	5
108	4
109	10
110	4
111	9
112	2
113	3
114	1
115	7
116	3
117	10
118	10
119	18
120	32
121	11
122	5
123	6
124	3
125	5
126	2
127	2
128	1
129	1
130	6
131	15
132	8
133	69
134	14
135	10
136	11
137	6
138	3
139	4
141	1
142	1
143	3
144	2
145	2
146	4
147	175
148	69
149	44
150	23
151	8
152	8
153	4
154	14
155	2
156	1
157	2
158	1
159	1
160	3
161	2
162	11
163	6
164	24
165	14
166	9
167	3
168	1
169	2
170	1
171	1
174	2
175	1
176	10
177	4
178	81
179	38
180	28
181	6
182	3
183	1
186	1
188	4
189	1
190	3
191	2
192	16
193	14
194	41
195	20
196	5
197	1
198	1
202	1
203	1
204	8
205	3
206	74
207	21
208	9
209	2
210	2
218	1
219	1
220	8
221	9
222	300
223	64
224	22
225	3
226	1
234	1
236	2
237	1
238	3
239	1
240	1
248	1
250	2
251	1
252	9
253	5
254	4
255	1
256	1
262	4
263	2
264	1
265	1
266	3
267	124
268	36
269	13
270	2
278	3
279	1
280	8
281	3
282	10
283	3
284	1
294	2
296	276
297	76
298	31
299	6
300	1
310	242
311	186
312	59
313	16
314	3
