Mass Spectrum: Decyl isobutyl carbonate
Formula: C15H30O3
CAS: 959226-07-4
Molecular weight: 258
m/z	intensity
15	1
26	1
27	31
28	11
29	90
30	4
31	7
38	1
39	38
40	11
41	264
42	68
43	245
44	11
45	4
51	1
52	1
53	14
54	23
55	234
56	277
57	999
58	47
59	7
63	119
64	2
65	4
66	3
67	34
68	54
69	193
70	180
71	205
72	12
73	23
74	1
76	5
77	5
79	4
80	1
81	15
82	74
83	222
84	115
85	229
86	15
87	1
88	1
89	3
90	3
91	1
95	6
96	30
97	166
98	65
99	50
100	4
103	30
104	2
109	3
110	14
111	96
112	112
113	10
117	9
118	21
119	116
120	7
121	1
125	3
138	1
140	95
141	52
142	5
157	2
159	1
185	2
203	1
