Mass Spectrum: Pentafluoropropionic acid, heptadecyl ester
Formula: C20H35F5O2
CAS: 959218-78-1
Molecular weight: 402
m/z	intensity
26	2
27	41
28	14
29	133
30	4
31	3
33	2
37	1
38	1
39	54
40	15
41	519
42	144
43	867
44	33
47	2
50	3
51	3
52	2
53	35
54	89
55	799
56	348
57	999
58	46
59	2
61	1
65	6
66	11
67	112
68	139
69	633
70	309
71	484
72	26
77	4
78	2
79	12
80	5
81	76
82	300
83	644
84	236
85	308
86	20
87	1
91	2
93	3
94	2
95	41
96	149
97	673
98	165
99	76
100	15
108	1
109	17
110	71
111	405
112	118
113	45
114	3
117	1
119	122
120	2
122	1
123	10
124	44
125	204
126	82
127	27
128	4
136	1
137	6
138	29
139	68
140	52
141	15
142	2
147	16
148	1
149	4
151	1
152	16
153	27
154	34
155	11
156	1
163	1
165	2
166	10
167	14
168	19
169	7
170	1
177	2
180	5
181	7
182	11
183	3
188	1
194	3
195	4
196	5
197	1
202	1
205	1
208	1
209	2
210	24
211	4
235	1
236	2
238	36
239	7
240	1
265	1
283	14
284	3
384	8
385	2
