Mass Spectrum: Octanoic acid, 2,2-dichloro-3-hydroxy-, ethyl ester
Formula: C10H18Cl2O3
CAS: 959263-31-1
Molecular weight: 256
m/z	intensity
36	310
37	60
38	140
39	510
40	130
41	870
42	360
43	490
44	640
45	240
46	20
48	30
49	50
50	50
51	90
52	20
53	170
54	30
55	999
56	400
57	550
58	30
59	40
61	40
63	50
65	40
66	10
67	90
68	80
69	240
70	430
71	170
72	70
73	90
74	30
75	80
76	60
77	130
78	40
79	40
80	10
81	50
82	90
83	560
84	40
85	120
87	90
88	40
89	70
90	10
91	50
92	10
93	90
94	210
95	230
96	90
97	30
98	20
99	80
100	20
101	120
102	130
103	20
104	120
105	50
106	20
107	520
108	20
109	260
110	30
111	70
114	20
115	130
116	30
117	30
119	50
120	190
121	70
122	310
123	90
124	120
125	90
127	40
128	830
129	40
130	440
131	20
132	90
133	360
134	20
135	510
136	30
137	160
139	40
141	50
143	20
149	30
150	10
151	10
153	20
156	940
157	70
158	770
159	110
160	140
161	130
163	20
168	60
169	100
174	10
175	10
176	110
178	20
185	30
187	20
192	10
195	20
204	60
205	10
206	20
221	20
223	7
