Mass Spectrum: Selenomethionine, N,O-bis(trimethylsilyl)-
Formula: C11H27NO2SeSi2
CAS: 959219-72-8
Molecular weight: 341
m/z	intensity
27	5
28	10
29	8
30	2
31	5
39	3
41	20
42	8
43	37
44	30
45	160
46	12
47	22
49	1
53	2
54	8
55	16
56	60
57	47
58	24
59	87
60	16
61	15
62	1
66	5
67	1
68	3
69	2
70	10
71	7
72	28
73	999
74	97
75	126
76	9
77	5
80	3
81	2
82	4
83	7
84	9
85	11
86	20
87	7
88	2
89	3
90	1
91	5
92	4
93	10
94	4
95	13
96	6
97	5
98	18
99	5
100	120
101	23
102	16
103	32
104	4
105	17
106	11
107	35
108	2
109	65
110	4
111	12
112	12
113	4
114	81
115	19
116	7
117	19
118	4
119	11
120	6
121	14
122	3
123	27
124	2
125	7
126	5
128	739
129	110
130	60
131	33
132	24
133	42
134	10
135	5
136	5
137	4
138	3
139	4
140	6
141	6
142	4
143	1
144	11
145	2
146	8
147	261
148	43
149	23
150	6
151	8
152	3
153	14
154	2
155	4
156	5
157	13
158	8
159	5
160	5
161	2
162	2
163	3
164	2
165	2
166	1
167	3
169	1
172	4
173	3
174	7
175	1
176	1
177	1
178	1
180	1
186	1
188	2
189	1
190	1
191	1
192	1
193	2
194	2
195	3
196	1
197	2
199	1
200	1
202	45
203	17
204	8
205	4
206	8
207	2
208	17
209	3
210	4
211	1
214	1
216	2
218	130
219	78
220	131
221	110
222	308
223	43
224	589
225	78
226	126
227	15
228	5
230	7
231	6
232	12
233	4
234	7
236	12
238	3
245	4
246	3
247	1
248	1
249	2
251	5
253	2
294	7
295	7
296	20
297	4
298	36
299	7
300	10
301	1
309	1
311	2
322	1
323	1
324	3
325	1
326	7
327	1
328	1
337	11
338	11
339	33
340	7
341	62
342	13
343	15
344	3
