Mass Spectrum: Pentafluoropropionic acid, tridecyl ester
Formula: C16H27F5O2
CAS: 959261-22-4
Molecular weight: 346
m/z	intensity
15	1
26	4
27	74
28	26
29	202
30	6
31	6
33	3
37	1
39	94
40	24
41	698
42	196
43	999
44	40
45	5
47	3
50	5
51	6
52	3
53	52
54	109
55	993
56	502
57	995
58	45
59	3
61	2
63	1
65	9
66	12
67	134
68	179
69	763
70	445
71	401
72	22
73	1
77	6
78	3
79	14
80	5
81	69
82	329
83	683
84	321
85	233
86	15
87	1
91	2
93	3
94	1
95	26
96	130
97	584
98	212
99	52
100	20
101	1
109	9
110	58
111	312
112	127
113	29
114	2
117	2
119	236
120	5
123	2
124	27
125	133
126	69
127	16
128	5
137	1
138	11
139	32
140	29
141	6
142	1
145	1
147	33
148	1
149	10
152	5
153	11
154	73
155	9
156	1
163	1
165	3
177	4
179	1
180	2
182	57
183	9
188	1
191	1
202	1
205	1
209	1
227	15
228	3
328	2
