Mass Spectrum: 11-Methyl-octadecanoic acid, pyrrolidide
Formula: C23H45NO
CAS: 959259-82-6
Molecular weight: 351
m/z	intensity
55	240
57	110
70	110
71	100
85	50
113	999
126	110
140	16
154	14
168	13
182	10
196	10
210	10
224	11
252	11
266	10
351	20
352	5
