Mass Spectrum: 7-Hydroxyocta-2,4-dienoic acid
Formula: C8H12O3
CAS: 959310-71-5
Molecular weight: 156
m/z	intensity
26	22
27	114
30	45
31	1
33	39
37	25
38	68
39	391
40	116
41	485
42	40
43	144
44	11
45	57
46	3
47	7
48	39
49	53
50	15
51	15
52	53
53	52
54	6
55	103
56	17
57	15
58	20
65	172
66	210
67	607
68	48
69	180
71	9
72	3
73	3
74	5
75	1
76	0
77	5
78	0
79	37
81	6
82	5
83	53
84	44
85	3
86	2
87	1
88	2
89	1
91	1
92	1
93	13
94	19
95	92
96	6
97	999
98	63
99	4
101	1
103	0
104	0
105	1
106	0
107	0
108	0
109	0
110	1
111	87
112	601
113	58
114	3
115	1
116	0
117	0
120	1
121	0
122	0
123	0
124	0
125	0
126	0
127	0
128	0
129	0
