Mass Spectrum: 1-Acetyl-2,3-naphthalenediol dibenzoate
Formula: C26H18O5
CAS: 95953-24-5
Molecular weight: 410
m/z	intensity
43	54
44	36
51	83
76	11
77	241
78	45
105	999
106	81
107	4
115	1
200	3
223	5
224	5
262	6
305	5
367	3
410	95
411	19
412	8
