Mass Spectrum: 3,3'-(Hexamethylenebis(oxy-p-phenylene))dipropionitrile
Formula: C24H28N2O2
CAS: 95954-51-1
Molecular weight: 376
m/z	intensity
26	1
27	16
28	13
29	29
38	2
39	26
40	6
41	156
42	13
43	22
44	3
50	4
51	12
52	9
53	17
54	11
55	629
56	40
57	7
60	1
62	2
63	9
64	4
65	16
66	4
67	72
68	5
69	7
70	1
71	4
73	1
74	1
75	2
76	5
77	77
78	35
79	18
80	3
81	24
82	276
83	850
84	58
85	4
89	16
90	18
91	77
92	9
93	3
94	4
95	9
96	2
97	3
98	2
99	1
101	6
102	9
103	135
104	30
105	13
106	13
107	999
108	80
109	7
110	1
111	1
113	1
115	3
116	4
117	9
118	9
119	38
120	26
121	24
122	3
123	1
125	1
127	1
128	10
129	7
130	79
131	12
132	8
133	25
134	4
135	1
141	1
142	1
143	1
144	2
145	27
146	41
147	272
148	293
149	19
150	1
155	1
157	1
158	3
159	3
160	195
161	28
162	2
168	11
169	1
172	1
173	12
174	9
175	2
186	11
187	9
188	8
189	242
190	34
191	10
192	1
200	3
201	1
202	2
203	1
213	1
214	2
228	7
229	43
230	199
231	32
232	2
336	18
337	5
349	12
350	3
376	89
377	23
378	4
