Mass Spectrum: Aniline, 2,6-dibromo-4-methoxy-
Formula: C7H7Br2NO
CAS: 95970-05-1
Molecular weight: 279
m/z	intensity
34	9
36	43
37	158
38	160
39	183
40	38
41	61
42	25
43	38
45	135
46	15
48	23
49	117
50	373
51	515
52	999
53	239
54	24
55	15
56	5
57	11
58	7
60	57
61	252
62	311
63	227
64	61
65	111
66	52
67	12
68	21
69	13
70	6
71	5
72	4
73	19
74	33
75	71
76	222
77	124
78	832
79	188
80	109
81	74
82	75
83	9
84	16
86	25
87	34
88	36
89	80
90	124
91	81
92	38
93	73
95	4
96	1
97	1
98	1
99	1
100	1
101	1
102	1
104	78
105	47
106	101
107	23
108	6
109	8
111	3
112	1
113	0
115	2
116	9
117	14
118	11
119	24
120	88
121	72
122	5
123	1
124	0
125	0
126	0
128	8
129	23
130	20
131	31
132	22
133	17
134	6
135	4
136	0
137	0
138	1
139	8
140	13
141	23
142	12
143	19
144	5
145	8
146	3
147	0
148	1
149	1
151	0
152	0
153	1
154	2
156	53
157	41
158	50
159	37
160	12
161	2
162	0
165	0
166	1
167	2
168	21
169	14
170	20
171	15
173	19
174	3
175	7
176	0
181	0
182	2
184	38
185	20
186	35
187	14
188	1
189	0
196	0
197	0
198	1
199	9
200	21
201	10
202	18
203	2
207	0
208	0
209	4
211	7
212	0
213	2
219	0
220	0
221	1
222	1
223	2
224	0
225	0
228	0
229	0
232	0
233	3
236	74
238	114
240	62
241	1
247	0
248	1
249	1
250	2
251	2
252	1
253	2
254	0
255	1
258	1
259	1
261	18
264	346
266	529
268	258
269	16
270	0
272	0
273	0
274	1
275	2
276	6
279	232
281	336
283	171
284	9
285	0
