Mass Spectrum: 4aH-cycloprop[e]azulen-4a-ol, decahydro-1,1,4,7-tetramethyl-
Formula: C15H26O
CAS: 95975-84-1
Molecular weight: 222
m/z	intensity
27	234
28	59
29	502
30	7
31	21
35	5
37	2
39	236
40	47
41	945
42	87
43	648
44	10
45	29
49	5
50	5
51	38
52	22
53	300
54	42
55	746
56	86
57	130
58	10
59	27
60	3
61	2
62	3
63	8
64	6
65	87
66	37
67	431
68	74
69	524
70	63
71	58
72	24
73	11
74	3
75	11
77	187
78	43
79	234
80	63
81	547
82	353
83	414
84	50
85	219
86	15
88	4
89	9
91	221
92	46
93	409
94	96
95	518
96	105
97	108
98	226
99	32
100	4
103	12
105	242
106	63
107	527
108	135
109	477
110	78
111	999
112	107
113	10
115	15
116	2
117	19
119	148
120	50
121	311
122	811
123	197
124	56
125	50
126	8
127	11
129	7
130	6
131	16
132	7
133	107
134	32
135	83
136	55
137	63
138	33
139	31
140	14
141	4
145	14
146	9
147	204
148	120
149	104
150	16
151	39
152	8
153	24
154	3
157	1
159	7
161	309
162	59
163	19
164	6
165	115
166	21
167	4
175	20
176	9
177	4
179	64
180	13
185	5
189	94
190	14
191	2
193	3
194	2
201	2
204	185
205	38
206	4
207	13
208	2
221	1
222	29
223	5
