Mass Spectrum: 3-Methyl-2-phenacylidon-thiazolidin-4-on
Formula: C12H11NO2S
CAS: 95981-41-2
Molecular weight: 233
m/z	intensity
12	6
13	9
14	67
15	181
16	5
17	18
18	52
25	3
26	32
27	221
28	202
29	24
30	38
31	2
32	9
33	3
37	9
38	30
39	99
40	20
41	31
42	280
43	23
44	21
45	315
46	294
47	34
48	21
49	10
50	221
51	653
52	99
53	67
54	122
55	137
56	46
57	35
58	34
59	37
60	9
61	18
62	27
63	64
64	14
65	14
66	8
67	12
68	10
69	13
70	12
71	13
72	20
73	17
74	66
75	48
76	88
77	999
78	79
79	6
80	9
82	496
83	26
84	10
85	43
86	18
87	24
89	81
90	25
91	33
92	13
93	4
94	2
95	2
97	2
98	4
100	526
101	38
102	100
103	48
105	710
106	60
107	4
108	4
109	3
112	3
113	5
114	11
115	17
116	58
117	23
118	33
119	4
120	2
121	25
122	9
123	3
126	2
127	11
128	173
129	14
130	65
131	97
132	34
133	7
134	11
135	8
136	13
137	4
140	2
142	55
143	45
144	12
145	9
146	6
147	6
148	6
149	7
150	40
151	5
152	2
154	2
156	718
157	55
158	73
159	37
160	42
161	6
162	19
163	44
164	5
165	2
172	3
173	1
174	2
176	5
177	1
186	2
188	2
189	2
190	23
191	19
192	4
200	1
202	2
204	17
205	6
206	1
216	185
217	26
218	13
219	1
232	131
233	359
234	56
235	20
236	3
