Mass Spectrum: 2,5-Furandione, 3-chloro-
Formula: C4HClO3
CAS: 96-02-6
Molecular weight: 132
m/z	intensity
12	38
13	42
14	7
16	9
17	1
18	1
24	82
25	277
26	493
27	13
28	40
29	31
30	1
35	31
36	36
37	16
38	9
40	17
41	39
42	5
43	2
44	109
45	17
47	44
48	10
49	14
50	3
52	56
53	296
54	471
55	16
56	1
58	1
59	62
60	998
61	43
62	325
63	9
68	2
69	4
71	3
76	1
82	1
87	107
88	999
89	68
90	312
91	11
92	1
94	51
95	1
96	32
98	67
99	4
132	4
134	1
