Mass Spectrum: 3-Pentanone
Formula: C5H10O
CAS: 96-22-0
Molecular weight: 86
m/z	intensity
14	3
15	6
17	1
18	3
25	1
26	24
27	123
28	42
29	593
30	13
31	4
32	2
37	2
38	3
39	17
40	3
41	19
42	17
43	15
44	1
45	1
50	3
51	3
53	8
54	1
55	12
56	36
57	999
58	33
59	3
61	1
62	1
63	1
65	1
67	2
68	1
69	1
70	2
71	4
84	1
85	4
86	211
87	11
