Mass Spectrum: 1,3-Cyclopentadiene, 1-methyl-
Formula: C6H8
CAS: 96-39-9
Molecular weight: 80
m/z	intensity
25	1
26	23
27	78
31	0
34	0
36	2
37	28
38	40
39	159
40	26
41	17
48	1
49	10
50	86
51	114
52	90
53	50
54	18
55	0
60	0
61	6
62	12
63	26
64	3
65	76
66	3
73	5
74	16
75	5
76	3
77	312
78	67
79	999
80	584
81	35
82	0
