Mass Spectrum: Phosporous acid, dimethyl ester
Formula: C2H7O3P
CAS: 96-36-6
Molecular weight: 110
m/z	intensity
34	0
44	0
45	8
47	511
48	58
49	101
50	7
51	10
52	0
54	0
59	0
60	0
61	1
62	6
63	20
64	11
65	84
66	1
67	0
77	28
79	999
80	974
81	23
82	3
93	19
95	154
96	2
97	0
109	62
110	35
111	7
112	0
