Mass Spectrum: 2-(2,5-Dioxopyrrolidin-1-yl)guanidine
Formula: C5H8N4O2
CAS: 960129-32-2
Molecular weight: 156
m/z	intensity
38	2
39	11
40	56
41	45
42	256
43	999
44	771
45	24
52	2
53	8
54	20
55	264
56	125
57	39
58	89
59	70
61	6
68	13
69	9
70	22
73	86
74	7
82	4
84	24
85	291
86	281
87	3
93	2
97	1
98	15
99	20
100	14
101	224
102	1
110	20
111	68
112	13
113	22
114	817
115	36
127	24
128	59
138	1
139	6
155	7
156	760
157	51
