Mass Spectrum: 2,2-Dimethylpropionic acid, undec-10-enyl ester
Formula: C16H30O2
CAS: 96042-18-1
Molecular weight: 254
m/z	intensity
26	9
27	98
28	8
29	208
30	8
31	9
36	6
38	9
39	157
40	31
41	578
42	115
43	118
44	19
45	8
50	9
51	11
52	9
53	55
54	149
55	335
56	118
57	999
58	46
59	27
65	9
66	18
67	132
68	183
69	171
70	28
71	21
79	18
80	7
81	109
82	153
83	88
84	6
85	93
87	17
91	3
93	3
94	6
95	75
96	89
97	39
98	6
103	205
104	7
109	39
110	51
111	11
123	16
124	19
152	29
