Mass Spectrum: 2'-O-(4,4'-Dimethoxytrityl)-5'-O-(4-oxopenyanoyl)uridine
Formula: C35H36N2O10
CAS: 96041-76-8
Molecular weight: 644
m/z	intensity
12	10
14	20
15	310
16	9
17	12
18	15
19	21
25	4
26	45
27	141
28	155
29	176
30	23
31	80
32	10
36	7
37	8
38	19
39	99
40	52
41	126
42	126
43	766
44	71
45	77
50	29
51	76
52	24
53	62
54	64
55	198
56	78
57	144
58	38
59	13
60	24
61	16
62	13
63	49
64	28
65	26
66	7
67	16
68	45
69	95
70	79
71	162
72	14
73	89
74	21
75	26
76	24
77	75
78	31
79	12
80	7
81	44
82	33
83	31
84	24
85	33
86	32
87	29
88	24
89	28
90	6
91	20
92	24
93	12
95	52
96	45
97	176
98	84
99	999
100	84
101	64
102	23
103	11
105	11
107	27
108	49
109	11
110	21
111	11
112	60
113	207
114	81
115	104
116	14
117	136
118	10
120	14
121	24
122	15
123	12
124	10
125	12
126	32
127	45
128	31
129	13
130	11
131	3
132	14
133	24
134	3
135	33
136	11
137	12
138	11
139	45
140	19
141	33
142	10
144	12
145	11
148	6
149	5
150	19
151	45
152	137
153	71
154	22
155	37
156	4
157	4
158	7
161	4
162	5
163	23
164	18
165	103
166	30
167	21
168	12
169	24
170	4
171	31
172	10
173	3
174	4
175	7
176	18
177	7
178	14
179	9
180	38
181	54
182	28
183	33
184	11
185	9
187	19
188	15
189	84
190	25
191	20
192	3
193	5
194	5
195	164
196	73
197	63
198	11
199	5
200	16
201	20
202	155
203	39
204	6
205	4
206	3
207	7
208	45
209	11
210	21
211	29
212	21
213	56
214	19
215	176
216	74
217	66
218	19
219	11
220	3
221	8
222	20
223	5
224	10
225	44
226	80
227	211
228	114
229	137
230	46
231	126
232	20
233	10
234	8
235	3
237	3
238	3
239	14
240	10
241	13
242	10
243	26
244	49
245	126
246	25
247	7
252	3
253	3
255	7
256	8
257	22
258	19
259	117
260	49
261	9
268	4
269	3
270	3
271	42
272	17
273	162
274	35
275	7
281	3
285	3
286	3
287	25
288	437
289	116
290	21
291	4
295	3
299	3
300	2
301	20
303	999
304	476
305	79
306	17
307	13
308	3
315	3
316	29
317	10
318	3
319	2
320	3
321	6
322	3
323	3
324	22
325	4
327	1
328	5
329	14
330	3
334	2
338	3
341	2
342	4
343	4
345	3
355	2
368	1
398	1
400	2
