Mass Spectrum: 2-Nitro-3-phenylbutane-1,3-diol
Formula: C10H13NO4
CAS: 96040-20-9
Molecular weight: 211
m/z	intensity
25	0
26	7
27	66
28	7
29	21
30	19
31	17
34	0
37	3
38	7
39	22
40	2
41	9
42	8
43	575
44	26
45	78
46	5
47	0
48	0
49	3
50	41
51	110
52	12
53	4
54	0
55	7
56	1
57	3
58	0
59	0
60	0
62	8
63	13
64	2
65	14
66	1
67	1
68	0
69	2
70	0
71	3
72	0
73	8
74	17
75	10
76	11
77	702
78	43
79	8
80	1
81	0
82	0
83	0
84	0
85	2
86	1
87	2
88	0
89	5
90	2
91	37
92	5
93	1
94	2
95	0
96	0
97	0
98	0
99	0
101	1
102	3
103	11
104	6
105	999
106	37
107	5
108	0
113	0
114	0
115	13
116	3
117	9
118	1
119	3
120	120
121	633
122	30
123	10
124	1
125	0
126	0
127	0
128	1
129	6
130	1
131	4
132	4
133	2
134	1
135	0
136	0
137	0
141	0
142	0
143	0
144	0
145	2
146	0
147	7
148	0
149	1
150	4
151	0
152	0
153	0
195	2
196	0
211	0
