Mass Spectrum: 11-Iodoundecanoic acid, t-butyl ester
Formula: C15H29IO2
CAS: 96044-28-9
Molecular weight: 368
m/z	intensity
26	2
27	51
28	25
29	132
30	2
31	4
35	1
36	6
37	1
38	3
39	35
40	11
41	300
42	48
43	126
44	5
45	7
50	1
51	3
52	1
53	15
54	12
55	206
56	135
57	999
58	52
59	19
60	30
61	4
63	0
64	1
65	1
66	1
67	22
68	8
69	112
70	13
71	40
72	2
73	20
74	2
75	0
77	1
78	0
79	5
80	1
81	24
82	5
83	112
84	15
85	24
86	1
87	8
91	1
92	0
93	8
94	2
95	16
96	4
97	63
98	12
99	5
100	1
101	17
102	1
107	7
108	0
109	11
110	2
111	33
112	4
113	2
114	1
115	15
116	2
117	0
118	0
119	0
120	0
121	3
122	1
123	8
124	2
125	39
126	3
127	3
128	3
129	11
130	1
133	5
139	4
140	1
141	2
143	6
147	2
148	1
149	79
150	8
151	9
152	1
153	1
154	1
155	34
156	1
157	1
165	3
166	2
167	153
168	19
169	12
170	1
171	1
183	13
184	1
185	271
186	34
187	3
197	9
209	1
210	1
211	7
223	1
224	0
225	3
235	0
241	5
252	0
253	2
265	1
266	0
267	1
277	1
278	1
293	1
294	0
295	156
296	19
297	1
311	1
312	17
313	43
314	4
335	1
353	1
367	1
368	4
369	1
