Mass Spectrum: N,N-Bis(methylsulfonyl)hydroxylamine
Formula: C2H7NO5S2
CAS: 96088-55-0
Molecular weight: 189
m/z	intensity
30	870
32	320
36	50
44	350
45	520
48	320
62	430
63	800
64	350
65	640
79	999
80	490
81	400
92	100
94	60
97	250
110	410
126	80
141	50
143	60
158	30
173	40
188	60
