Mass Spectrum: N,O-Bis(methylsulfonyl)hydroxylamine
Formula: C2H7NO5S2
CAS: 96088-56-1
Molecular weight: 189
m/z	intensity
30	300
31	70
32	150
45	60
46	70
48	190
63	650
64	220
65	300
79	999
80	640
81	380
94	510
95	380
97	310
110	120
143	740
145	130
158	690
160	100
