Mass Spectrum: 5-MeO-MiPT
Formula: C15H22N2O
CAS: 96096-55-8
Molecular weight: 246
m/z	intensity
40	1
41	19
42	25
43	36
44	245
45	6
50	4
51	7
52	4
53	3
54	2
55	2
56	22
57	2
58	4
59	1
61	1
62	6
63	20
64	4
65	4
66	1
67	1
68	1
70	13
71	10
72	6
73	1
74	5
75	7
76	7
77	18
78	5
79	1
80	2
81	1
82	1
84	6
86	999
87	64
88	6
89	40
90	24
91	7
92	1
93	1
94	2
98	1
99	1
100	2
101	5
102	12
103	16
104	7
105	2
106	1
107	1
108	2
113	1
114	3
115	14
116	40
117	74
118	13
119	2
127	1
128	9
129	9
130	42
131	17
132	6
133	1
134	1
140	1
141	2
142	5
143	14
144	45
145	65
146	16
147	4
148	1
153	1
154	1
155	1
156	2
157	2
158	14
159	63
160	101
161	19
162	4
163	1
168	1
169	1
170	1
171	1
172	5
173	15
174	45
175	5
176	1
183	1
184	1
185	1
186	1
187	3
188	3
189	1
198	1
199	1
200	1
201	1
202	2
203	1
207	1
208	1
213	1
214	1
215	2
216	1
229	4
230	1
231	1
243	1
244	2
246	39
247	7
248	1
