Mass Spectrum: 7-Acetyl-2-hydroxy-2-methyl-5-isopropylbicyclo[4.3.0]nonane
Formula: C15H26O2
CAS: 96093-81-1
Molecular weight: 238
m/z	intensity
41	150
43	999
55	70
67	60
69	40
71	160
79	50
81	50
91	40
93	70
95	60
109	60
111	70
135	250
153	450
154	60
238	50
