Mass Spectrum: N-p-toluenesulfonyl-tyrosyl-S-benzylcysteine methyl ester
Formula: C27H30N2O6S2
CAS: 96113-81-4
Molecular weight: 542
m/z	intensity
41	29
42	18
43	14
44	8
45	119
46	14
47	22
48	8
49	9
50	61
51	86
52	25
53	14
55	9
56	3
57	8
58	9
59	11
60	7
61	18
62	42
63	87
64	28
65	184
66	12
67	3
68	13
69	23
70	6
71	13
73	9
74	16
75	9
76	7
77	88
78	32
79	21
80	5
81	4
82	6
83	3
84	1
85	7
86	7
87	6
88	6
89	59
90	46
91	999
92	98
93	10
95	6
96	6
97	13
98	1
100	1
101	4
102	5
105	3
106	10
107	219
108	34
109	1
111	1
114	1
116	1
117	7
119	5
120	4
121	19
122	6
123	12
124	252
125	22
126	12
129	28
133	4
134	32
135	18
136	11
137	1
138	8
139	9
140	14
146	8
147	40
148	6
155	61
156	15
157	20
162	11
163	16
164	3
166	3
174	9
175	1
190	1
219	12
224	4
247	25
248	5
249	8
263	10
280	43
281	20
282	3
283	3
290	37
291	6
371	9
372	1
451	3
