Mass Spectrum: Prop-1-enol, 3-benzylidenamino-1-(4-bromophenyl)-
Formula: C16H14BrNO
CAS: 96128-09-5
Molecular weight: 315
m/z	intensity
38	5
39	33
40	8
41	16
42	3
43	1
44	0
50	47
51	48
52	15
53	12
54	6
55	6
61	0
62	10
63	42
65	168
66	10
67	0
68	10
69	2
70	3
74	30
75	55
76	64
77	80
78	27
79	21
80	7
81	4
82	6
86	1
87	3
89	87
91	999
92	70
93	2
95	0
101	13
102	27
103	35
104	61
105	45
106	159
107	10
108	0
109	0
110	1
115	19
116	22
117	75
118	34
119	4
127	7
128	4
129	7
130	70
131	106
132	227
133	23
134	3
135	0
143	1
144	4
145	31
146	3
151	0
152	0
155	76
156	21
157	81
158	34
159	9
160	48
161	4
165	6
166	3
167	3
168	1
169	20
170	0
171	19
172	2
178	2
179	3
180	3
181	5
182	7
183	93
185	100
186	5
189	1
190	0
191	6
192	1
193	2
194	1
195	5
196	2
197	4
198	1
204	0
205	0
206	11
207	9
208	19
209	5
210	10
211	11
212	3
213	6
217	3
218	4
219	7
220	2
223	4
224	37
225	7
226	38
227	4
234	2
235	2
236	13
237	5
238	3
239	1
240	1
245	2
247	3
269	0
284	0
285	1
286	4
287	2
288	2
297	0
298	50
299	11
300	53
301	7
302	1
314	106
315	485
316	194
317	521
318	93
319	6
