Mass Spectrum: 4,8,12,16-Tetramethylheptadecan-4-olide
Formula: C21H40O2
CAS: 96168-15-9
Molecular weight: 324
m/z	intensity
27	13
28	11
29	34
39	18
40	6
41	170
42	41
43	385
44	13
45	3
53	15
54	9
55	255
56	148
57	249
58	24
59	7
65	4
67	47
68	46
69	252
70	150
71	200
72	13
73	7
79	7
81	58
82	27
83	125
84	52
85	70
86	7
93	8
94	4
95	44
96	29
97	98
98	43
99	999
100	52
101	22
107	8
108	4
109	62
110	45
111	114
112	39
113	19
114	164
115	33
116	3
122	11
123	37
124	26
125	55
126	132
127	55
128	34
129	17
133	7
135	5
137	17
138	6
139	11
140	24
141	18
142	7
143	5
147	5
149	6
151	33
152	6
153	8
154	3
155	7
157	3
161	4
163	4
164	4
165	5
166	12
167	7
168	2
169	9
170	5
179	7
180	4
181	5
182	3
183	3
184	19
185	6
193	3
194	3
195	2
196	24
197	4
198	4
199	3
203	3
210	2
211	3
221	6
235	2
236	2
239	4
240	2
249	3
250	2
252	2
254	11
255	3
264	2
269	2
286	2
291	2
306	6
307	1
324	12
325	3
