Mass Spectrum: 4-Hydroxy-6-phenylhexanehydrazide
Formula: C12H18N2O2
CAS: 96181-42-9
Molecular weight: 222
m/z	intensity
14	1
15	2
16	9
17	30
18	2
25	1
26	10
27	45
28	65
29	72
30	22
31	53
32	608
33	21
37	1
38	4
39	47
40	7
41	33
42	12
43	30
44	11
45	6
50	13
51	50
52	20
53	28
54	9
55	53
56	24
57	63
58	18
59	9
60	1
61	1
62	5
63	26
64	13
65	100
66	12
67	20
68	8
69	9
70	12
71	43
72	4
73	5
74	212
75	15
76	14
77	72
78	45
79	38
80	10
81	42
82	9
83	6
84	23
85	158
86	11
87	28
88	31
89	23
90	9
91	999
92	318
93	22
94	3
95	7
96	5
97	3
98	12
99	113
100	12
101	3
102	14
103	42
104	87
105	87
106	11
107	9
108	3
109	1
110	1
111	2
112	10
113	224
114	15
115	100
116	36
117	279
118	39
119	4
120	2
121	7
122	6
123	1
125	1
126	4
127	19
128	61
129	178
130	657
131	186
132	24
133	13
134	11
135	3
139	4
140	2
141	14
142	12
143	25
144	23
145	37
146	11
147	2
148	3
149	3
150	2
151	5
152	19
153	23
154	26
155	33
156	6
157	5
158	9
159	5
160	4
161	2
162	1
165	1
166	1
167	4
168	9
169	10
170	12
171	16
172	30
173	92
174	12
175	7
176	1
184	1
186	2
187	2
188	1
189	5
190	294
191	89
192	9
193	1
203	3
204	192
205	30
206	3
222	58
223	11
224	1
