Mass Spectrum: N-Nitroso-2,4,4-trimethyloxazolidine
Formula: C6H12N2O2
CAS: 96228-15-8
Molecular weight: 144
m/z	intensity
29	345
30	210
31	36
32	20
37	9
38	21
39	230
40	75
41	887
42	721
43	358
44	53
45	138
46	8
47	1
49	6
50	22
51	34
52	26
53	39
54	43
55	210
56	872
57	999
58	269
59	79
60	31
61	3
62	2
63	6
64	3
65	15
66	16
67	15
68	58
69	184
70	115
71	102
72	32
73	155
74	37
75	8
76	7
77	28
78	95
79	10
80	3
81	7
82	25
83	76
84	368
85	89
86	563
87	159
88	9
89	2
91	5
92	2
93	2
94	33
95	7
96	4
97	9
98	126
99	16
100	17
101	34
102	9
103	2
105	6
106	1
109	2
110	2
111	2
112	31
113	6
114	3
115	232
116	13
117	2
119	3
120	1
125	1
126	45
127	20
128	7
129	15
131	2
139	2
140	5
141	5
142	2
144	70
145	9
