Mass Spectrum: 1-Methyl-3-[2,3,5-tri-O-acetyl-.beta.-d-ribofuranosyl]pyrazolo[4,3-d]pyrimidin-7(6H)-one
Formula: C17H20N4O8
CAS: 96221-18-0
Molecular weight: 408
m/z	intensity
42	121
43	999
44	40
45	28
47	5
48	2
49	22
50	3
51	13
52	8
53	18
54	9
55	22
56	5
57	13
58	2
59	1
60	16
61	7
63	1
64	3
65	5
66	10
67	20
68	25
69	32
70	7
71	5
72	0
73	11
74	2
75	0
76	5
77	6
78	9
79	12
80	8
81	15
82	6
83	5
84	17
85	53
86	20
87	3
88	1
89	1
90	1
91	6
92	6
93	14
94	15
95	10
96	12
97	10
98	2
99	5
100	2
101	3
102	2
103	5
104	2
105	7
106	7
107	9
108	13
109	4
110	1
111	2
112	1
113	0
115	10
116	2
117	1
118	2
119	3
120	6
121	17
122	7
123	4
124	4
127	12
128	7
129	2
130	1
131	1
132	2
133	4
134	5
135	7
136	5
137	2
139	2
144	2
145	3
146	1
147	4
148	6
149	16
150	12
151	5
152	2
157	2
159	0
160	3
161	2
162	5
163	87
164	20
165	3
166	0
167	0
170	1
172	1
173	1
174	2
175	26
176	35
177	80
178	13
179	242
180	21
181	2
187	5
188	4
189	7
190	9
191	14
192	44
193	52
194	6
195	2
201	3
202	1
203	31
204	9
205	76
206	10
207	3
208	2
209	1
215	3
216	6
217	28
218	13
219	12
220	2
221	9
222	2
223	3
228	4
229	472
230	63
231	9
232	2
233	98
234	15
235	10
236	1
237	1
243	0
245	75
246	166
247	38
248	5
251	3
263	9
264	2
275	101
276	14
277	4
288	14
289	6
290	1
305	14
306	11
307	3
348	114
349	20
350	3
357	1
408	2
