Mass Spectrum: Tetrahydropyran 12-tetradecyn-1-ol ether
Formula: C19H34O2
CAS: 96249-40-0
Molecular weight: 294
m/z	intensity
41	234
42	40
43	137
44	17
45	5
46	0
47	4
49	1
50	1
51	3
52	3
53	26
54	28
55	218
56	204
57	124
58	6
59	3
60	1
61	1
63	0
64	0
65	6
66	5
67	85
68	32
69	92
70	14
71	37
72	3
73	2
74	5
75	1
77	5
78	1
79	16
80	4
81	40
82	17
83	59
84	103
85	999
86	62
87	5
88	0
89	0
91	4
92	1
93	9
94	4
95	47
96	10
97	41
98	7
99	4
100	9
101	129
102	11
103	7
104	0
105	1
106	0
107	9
108	2
109	23
110	4
111	11
112	2
113	1
114	0
115	20
116	3
117	1
119	2
121	5
122	1
123	6
124	2
125	4
126	1
127	1
128	0
129	1
130	0
131	0
133	1
134	1
135	9
136	1
137	8
138	1
139	1
140	1
141	1
142	0
143	0
144	0
145	0
147	0
148	6
149	5
150	6
151	5
152	1
153	1
154	0
155	1
156	0
157	0
158	0
159	0
161	0
162	4
163	3
164	3
165	3
166	0
167	1
168	0
169	1
171	0
173	0
175	0
176	0
177	3
178	1
179	2
180	0
181	0
182	0
183	0
185	0
186	0
188	0
189	0
190	0
191	1
192	0
193	1
194	0
195	0
196	0
197	0
199	0
200	0
203	0
204	1
205	0
206	1
207	1
208	0
209	0
210	0
217	0
219	0
221	4
222	1
223	3
224	0
225	0
226	0
227	0
229	0
230	0
231	0
232	2
233	2
234	1
235	2
236	0
237	0
239	1
240	0
241	0
245	0
249	0
250	0
251	0
254	0
255	0
256	0
260	0
261	8
262	1
263	8
264	1
265	0
268	0
272	0
274	0
276	1
277	0
278	1
279	4
280	1
281	1
282	0
291	0
292	0
293	1
294	3
295	1
296	0
