Mass Spectrum: .beta.-Pinene, 3-(acetylmethyl)-
Formula: C13H20O
CAS: 96294-80-3
Molecular weight: 192
m/z	intensity
24	12
26	11
27	148
28	107
29	64
30	3
31	10
37	3
38	10
39	156
40	14
41	487
42	40
43	999
44	25
45	15
50	12
51	45
52	26
53	120
54	10
55	91
56	5
57	76
58	23
59	11
60	1
62	2
63	17
64	6
65	53
66	18
67	39
68	12
69	346
70	32
71	4
74	1
75	1
76	2
77	86
78	53
79	123
80	15
81	91
82	13
83	3
84	1
89	3
91	545
92	174
93	206
94	23
95	18
96	2
97	1
102	1
103	12
104	11
105	95
106	36
107	118
108	24
109	15
110	2
111	1
115	10
116	14
117	29
119	720
120	123
121	31
122	3
123	3
124	2
128	1
129	8
130	2
131	65
132	8
133	18
134	883
135	92
136	6
144	1
145	2
147	2
148	3
149	147
150	21
159	7
174	4
177	4
192	2
