Mass Spectrum: Benzene, 1,1'-[1,2-ethenediylbis(sulfonyl)]bis-, (Z)-
Formula: C14H12O4S2
CAS: 963-15-5
Molecular weight: 308
m/z	intensity
40	0
48	0
50	20
51	438
52	0
63	1
64	0
65	19
69	0
73	1
74	5
75	7
77	999
78	60
91	12
93	0
97	33
102	8
103	6
109	2
119	18
124	0
125	562
126	52
127	8
134	0
139	1
141	317
142	7
143	6
152	0
154	0
167	48
183	0
308	22
309	0
