Mass Spectrum: Bicyclo[2.2.1]hept-5-ene-2-carboxylic acid, 1-[[(dicyclohexylamino)sulfonyl]methyl]-7,7-dimethylbicyclo[2.2.1]hept-2-yl ester, [1R-[1.alpha.,2.beta.(1S*,2R*,4R*),4.alpha.]]-
Formula: C30H47NO4S
CAS: 96303-90-1
Molecular weight: 517
m/z	intensity
27	107
28	19
29	69
30	24
39	68
40	27
41	264
42	25
43	104
44	73
49	138
51	37
53	54
54	46
55	999
56	129
57	37
59	39
65	66
66	289
67	143
68	40
69	95
70	21
77	104
78	22
79	226
80	41
81	170
82	76
83	378
84	81
86	53
91	107
92	31
93	330
94	45
95	28
96	25
98	156
100	42
107	151
108	34
109	39
110	34
121	268
122	34
123	18
125	25
135	709
136	127
137	23
138	124
146	60
150	25
162	16
165	35
178	22
179	67
180	138
181	181
182	55
192	10
199	10
207	33
216	12
218	19
219	7
228	154
229	27
230	10
234	11
235	21
244	111
245	17
246	108
247	15
254	18
259	10
272	13
298	101
299	21
301	17
315	31
316	47
317	9
380	353
381	91
382	31
451	29
452	8
517	8
