Mass Spectrum: Benzo[b]thiophene-3-carboxylic acid, 4,5,6,7-tetrahydro-2-benzoylamino-7-oxo-, ethyl ester
Formula: C18H17NO4S
CAS: 96334-43-9
Molecular weight: 343
m/z	intensity
33	1
34	0
37	1
38	4
39	19
40	16
41	11
42	7
43	8
44	14
45	12
46	0
47	1
50	17
51	75
52	9
53	5
54	2
55	13
56	1
57	2
58	3
59	3
60	2
61	2
62	0
63	3
64	6
65	15
66	8
67	6
68	2
69	9
70	8
71	6
72	2
73	6
74	2
75	5
76	20
77	414
78	32
79	2
80	2
81	2
82	7
83	2
84	2
85	2
87	0
89	0
90	0
91	1
92	6
93	3
94	5
95	4
96	2
97	4
98	1
99	1
100	0
101	0
102	1
103	2
105	999
106	77
107	5
108	2
109	6
110	2
111	1
112	0
113	0
115	0
119	0
120	2
121	2
122	4
123	1
124	0
125	1
126	1
127	1
128	0
130	0
134	0
135	0
136	4
137	2
138	0
139	0
148	1
149	1
150	0
152	0
153	0
154	1
155	1
164	2
165	2
166	0
181	0
182	1
183	0
184	0
193	0
194	0
210	0
238	0
297	2
298	1
343	15
344	3
345	0
