Mass Spectrum: Androstan-3-ol-17-one, 3,9-epoxy-11-mercapto-3-O-methyl-
Formula: C20H30O3S
CAS: 96364-77-1
Molecular weight: 350
m/z	intensity
41	564
43	514
45	265
47	117
49	180
51	90
53	261
55	633
57	109
59	210
60	56
61	21
63	15
65	125
67	308
69	190
71	88
72	47
73	51
74	27
75	14
77	256
79	400
81	227
82	36
84	185
85	367
86	108
87	55
88	14
89	14
91	370
93	251
95	248
97	279
98	12
99	56
100	5
101	27
102	4
103	49
105	268
107	168
109	211
110	999
111	229
113	61
114	13
115	87
117	127
119	140
121	150
123	280
124	130
125	82
127	72
128	137
129	73
131	127
133	103
134	53
135	87
136	35
137	218
138	103
139	149
140	83
141	42
143	98
145	101
147	135
149	81
150	21
151	155
152	88
153	34
155	64
157	68
159	67
161	63
162	117
163	48
165	157
166	36
167	14
169	58
170	7
171	44
173	49
175	60
176	34
177	35
179	303
180	15
181	48
182	8
183	29
185	28
187	34
188	12
189	19
190	18
191	15
193	46
194	320
195	56
197	23
199	18
201	35
203	35
205	41
207	46
209	40
211	21
213	22
215	29
216	17
217	12
218	4
219	51
220	21
221	10
223	29
225	17
227	28
229	52
231	53
233	32
234	20
235	29
237	10
238	5
239	9
241	12
243	31
245	13
247	24
248	64
249	12
250	3
251	2
253	3
255	5
257	17
258	4
259	17
261	32
262	31
263	55
264	14
266	47
267	22
269	18
271	10
272	8
273	5
275	68
276	19
277	3
278	3
279	1
281	2
283	3
284	5
285	35
287	40
289	24
290	174
291	36
293	10
294	4
295	2
296	2
297	0
298	2
299	103
300	9
301	34
303	18
304	5
305	1
307	6
308	0
309	2
316	61
317	375
318	90
319	6
321	15
322	28
323	2
324	1
331	1
332	34
333	16
335	20
336	2
337	1
350	346
351	66
352	22
353	5
