Mass Spectrum: Benzoic acid, (decahydro-1-benzoyl-4-quinolinyl) ester
Formula: C23H25NO3
CAS: 96370-40-0
Molecular weight: 363
m/z	intensity
36	0
38	0
39	6
40	3
41	17
42	5
43	3
44	2
45	0
49	0
50	8
51	38
52	3
53	6
54	7
55	12
56	7
57	2
58	0
63	0
65	3
66	2
67	16
68	7
69	2
70	1
71	0
73	0
74	1
75	3
76	12
77	322
78	24
79	15
80	12
81	11
82	6
83	1
84	0
89	0
90	0
91	8
92	3
93	7
94	13
95	6
96	3
97	1
98	0
103	1
105	999
106	83
107	13
108	17
109	6
110	6
111	0
112	0
115	0
117	1
118	1
119	2
120	30
121	8
122	19
123	4
124	2
125	0
127	0
128	0
129	0
130	0
131	0
132	1
133	0
134	24
135	28
136	67
137	15
138	5
139	0
143	0
144	0
145	0
146	2
147	0
148	4
149	0
150	1
151	0
152	1
153	3
154	0
155	0
156	0
157	0
158	0
159	0
160	4
161	1
162	0
163	0
164	1
168	0
169	0
170	0
171	1
172	0
173	0
174	2
175	0
176	0
178	0
181	0
182	0
183	0
184	3
185	3
186	4
187	2
188	0
196	0
198	7
199	3
200	4
201	0
202	2
203	0
211	0
212	29
213	29
214	6
215	0
216	5
217	0
218	0
223	0
224	0
226	10
227	1
228	0
229	0
230	0
238	0
239	0
240	54
241	189
242	84
243	12
244	1
256	5
257	82
258	111
259	25
260	3
261	0
286	0
320	10
321	2
346	0
362	10
363	159
364	37
365	5
366	0
