Mass Spectrum: 17.alpha.-Hydroxy-11-desoxycorticosterone 21-acetate
Formula: C23H32O5
CAS: 96391-56-9
Molecular weight: 388
m/z	intensity
41	109
43	999
44	8
45	17
47	2
49	11
51	8
53	47
55	138
57	23
58	12
59	3
61	6
63	0
65	26
67	95
69	30
71	16
73	38
74	24
77	70
79	97
81	60
83	28
84	5
85	6
86	5
87	2
91	101
93	81
95	72
97	66
98	5
99	3
101	8
102	1
103	13
105	86
107	82
109	55
110	8
111	8
112	0
113	2
115	15
117	33
119	54
121	54
122	12
123	56
124	33
125	5
128	12
129	13
131	34
133	45
134	14
135	23
136	42
137	12
138	2
141	5
142	2
143	18
145	66
147	54
148	21
149	19
150	5
151	2
153	1
155	10
157	18
159	31
161	27
162	8
163	9
164	3
165	3
167	2
169	9
171	16
173	28
174	9
175	10
176	1
177	5
179	3
181	3
183	8
185	17
186	3
187	25
188	2
189	8
190	1
191	1
195	5
196	0
197	7
198	5
199	12
200	20
201	14
202	1
203	5
204	0
205	3
207	2
209	7
211	15
213	17
214	10
215	15
216	5
217	4
223	2
224	5
225	8
227	38
229	90
230	14
231	3
233	1
235	0
237	0
239	4
240	3
242	120
243	36
244	28
245	3
246	12
247	2
249	1
251	6
253	6
254	1
255	5
257	1
258	32
259	5
267	10
269	98
270	15
271	13
272	2
273	9
283	2
284	0
285	9
286	25
287	182
288	32
289	6
292	0
293	1
295	10
296	2
297	3
299	2
300	3
310	16
311	4
313	12
314	3
327	1
328	60
329	20
330	5
332	1
371	6
372	0
387	13
388	53
389	12
390	1
