Mass Spectrum: N1-Cyclohexylpiperidine-1-carbothioamide
Formula: C12H22N2S
CAS: 96431-16-2
Molecular weight: 226
m/z	intensity
33	9
34	9
36	3
37	2
39	137
40	134
41	542
42	143
43	169
44	82
45	23
46	4
47	4
48	4
50	6
51	14
52	13
53	65
54	79
55	369
56	230
57	64
58	17
59	20
60	68
61	81
62	18
63	6
64	5
65	15
66	9
67	75
68	44
69	272
70	53
71	18
72	133
73	15
74	14
75	7
77	30
78	9
79	38
80	18
81	83
82	55
83	109
84	807
85	72
86	65
87	10
88	6
89	11
90	3
91	2
92	7
93	5
94	7
95	8
96	71
98	999
99	70
100	10
101	46
102	95
103	13
104	4
105	1
108	4
109	7
110	43
111	307
112	33
113	13
114	8
115	95
116	86
117	10
118	3
121	2
122	1
123	2
124	1
125	4
126	11
127	20
128	153
129	157
130	29
131	9
135	2
136	1
137	2
139	5
140	3
141	14
142	10
143	73
144	190
145	55
146	11
147	3
149	2
151	3
155	6
159	1
163	1
169	12
170	3
171	1
181	2
183	16
184	3
191	1
193	25
194	3
195	1
197	9
198	1
210	0
211	2
222	0
223	1
224	7
225	46
226	551
227	80
228	29
229	3
