Mass Spectrum: 2-Oxo-6-phenyl-1H-pyridine-3,4-dicarbonitrile
Formula: C13H7N3O
CAS: 96464-04-9
Molecular weight: 221
m/z	intensity
35	13
36	97
37	210
38	322
39	469
40	106
41	76
42	31
43	88
44	179
45	35
46	3
48	15
49	78
50	679
51	999
52	287
53	67
54	25
55	23
56	18
57	29
59	5
60	16
61	99
62	360
63	465
64	149
65	60
66	39
67	64
68	15
70	56
71	10
73	46
74	224
75	242
76	367
77	729
78	151
79	10
80	4
81	6
83	119
85	28
86	53
87	90
88	156
89	472
90	136
91	23
94	3
96	43
97	46
98	23
99	57
100	63
101	33
102	88
103	82
104	178
105	31
107	3
109	4
111	54
112	45
113	55
114	104
115	63
116	26
117	84
118	7
119	4
121	2
122	2
123	15
124	18
125	12
126	7
127	22
128	15
129	9
137	6
138	80
139	261
140	145
141	38
142	36
143	7
144	36
145	3
149	3
150	2
151	19
152	12
153	13
154	7
155	2
164	23
165	197
166	122
167	28
168	4
169	2
178	9
179	5
191	7
192	34
193	549
194	91
195	10
196	3
219	5
220	59
221	787
222	121
223	9
