Mass Spectrum: 2-Mercapto-5-(1,1-ethylenedioxyethyl)-1,3-diazaazulene
Formula: C12H12N2O2S
CAS: 96472-32-1
Molecular weight: 248
m/z	intensity
14	1
15	11
17	11
18	1
26	3
27	11
28	13
29	9
30	2
31	14
32	3
33	1
34	1
37	2
38	6
39	15
40	2
41	4
42	9
43	395
44	14
45	19
46	3
50	20
51	29
52	11
53	4
54	1
55	3
56	1
57	4
58	1
59	2
60	2
61	3
62	9
63	21
64	14
65	8
66	5
67	8
68	1
69	4
70	7
71	3
72	1
73	3
74	8
75	28
76	29
77	24
78	8
79	2
80	20
81	12
82	3
83	6
84	4
85	2
86	3
87	999
88	51
89	19
90	28
91	11
92	2
93	1
94	24
95	5
96	4
97	2
98	1
99	3
100	5
101	10
102	37
103	32
104	10
105	3
106	1
107	5
108	4
109	2
110	1
111	1
113	1
114	3
115	3
116	21
117	16
118	7
119	2
120	2
121	3
122	1
123	1
127	3
128	9
129	9
130	11
131	4
132	3
133	6
134	54
135	10
136	4
137	1
141	1
142	2
143	3
144	2
145	2
146	4
147	1
148	9
149	7
150	4
151	1
153	1
155	2
156	1
157	2
158	1
159	4
160	13
161	47
162	116
163	19
164	7
165	1
173	2
174	3
175	9
176	25
177	6
178	4
179	1
185	1
187	12
188	13
189	23
190	9
191	3
192	1
201	1
202	2
203	5
204	16
205	11
206	93
207	11
208	5
217	6
218	9
219	2
220	1
231	2
232	3
233	264
234	36
235	16
236	2
247	8
248	564
249	84
250	38
251	5
