Mass Spectrum: Ethanone, 2-(1,3-dihydro-1-imino-2-isoindolyl)-1-(2-thienyl)-
Formula: C14H12N2OS
CAS: 96493-13-9
Molecular weight: 256
m/z	intensity
33	4
34	0
35	0
36	9
39	261
41	44
42	18
43	8
45	47
47	2
49	2
50	29
51	35
52	13
53	13
54	2
55	3
57	28
58	19
60	1
61	2
63	82
64	23
65	25
67	5
69	14
70	3
71	3
72	1
75	25
76	23
77	25
83	33
84	16
85	7
86	3
87	6
89	249
90	89
91	18
92	4
93	2
94	1
95	4
97	23
98	2
99	2
101	5
102	11
103	8
104	14
105	3
108	15
109	9
111	109
112	8
113	6
114	15
116	999
117	101
118	17
119	10
121	1
122	3
123	0
124	0
125	0
126	17
128	21
129	9
131	204
132	15
134	1
135	5
136	1
137	0
138	0
139	2
140	3
143	28
145	674
146	59
148	0
149	1
150	1
151	1
152	1
153	1
154	1
156	1
157	1
159	0
160	0
163	0
164	1
165	1
166	3
167	2
168	1
169	0
170	0
171	3
173	2
174	0
176	0
177	1
178	1
179	1
180	0
181	1
182	0
183	2
184	1
185	1
186	0
189	0
190	0
191	1
192	2
193	5
194	2
195	20
196	2
198	3
199	4
200	2
201	0
203	0
204	1
205	6
206	1
207	0
209	3
210	6
211	3
213	3
214	0
217	0
218	0
219	1
221	2
223	24
224	3
225	1
226	1
227	16
228	112
229	16
230	5
231	0
232	0
234	1
235	1
237	21
238	123
239	24
240	7
241	1
242	0
245	0
246	2
247	5
248	1
249	0
251	0
252	1
253	1
254	2
256	193
257	27
258	10
259	1
260	0
