Mass Spectrum: Ethanone, 2-(1,3-dihydro-1-imino-2-isoindolyl)-1-(4-methoxyphenyl)-
Formula: C17H16N2O2
CAS: 96493-08-2
Molecular weight: 280
m/z	intensity
33	10
36	22
39	119
41	56
42	24
43	15
44	4
45	2
46	0
50	52
51	60
52	19
53	13
55	15
57	17
58	5
60	4
62	19
63	132
64	92
65	43
66	10
67	2
68	1
69	5
70	3
71	3
74	17
75	26
77	252
78	30
84	2
86	3
87	6
89	252
90	96
92	136
93	9
94	3
96	11
97	3
98	2
99	2
101	7
102	12
103	15
104	22
105	5
107	55
108	13
109	17
111	3
112	1
113	1
116	999
117	99
118	17
119	16
121	47
122	4
123	3
125	1
126	8
127	3
128	18
129	8
131	198
132	19
133	6
135	329
136	19
137	3
138	0
139	2
140	1
141	3
143	28
145	777
146	59
147	3
149	2
150	47
151	6
152	3
153	1
155	3
156	0
157	2
162	0
163	3
164	6
165	8
166	3
167	1
168	0
169	2
170	2
171	2
172	4
173	3
174	1
176	0
177	3
178	1
179	2
180	3
181	0
182	0
185	0
188	0
190	9
191	8
192	6
193	2
195	0
199	0
203	2
204	1
205	1
206	0
207	1
208	3
209	2
210	0
213	2
215	4
217	11
218	21
219	48
220	9
221	5
222	2
223	8
224	0
225	1
228	1
229	2
230	2
231	3
232	1
233	1
234	1
235	1
237	23
238	3
244	0
245	1
247	116
248	20
249	4
251	89
252	79
254	0
259	2
260	2
262	210
263	45
264	5
265	1
266	0
268	0
277	6
279	9
280	327
281	51
282	6
283	0
