Mass Spectrum: Benzoyl-L-arginine amide
Formula: C13H19N5O2
CAS: 965-03-7
Molecular weight: 277
m/z	intensity
12	6
13	9
14	8
15	17
16	277
17	405
18	197
20	2
21	2
24	1
25	5
26	52
27	159
28	164
29	22
30	102
31	4
39	127
40	46
41	215
42	176
43	208
44	81
45	7
46	3
48	2
49	11
50	138
51	263
52	91
53	45
54	54
55	54
56	55
57	30
58	11
59	25
60	9
61	8
62	13
63	32
64	25
65	30
66	29
67	76
68	184
69	135
70	220
71	19
72	19
73	11
74	35
75	56
76	217
77	739
78	89
79	45
80	17
81	18
82	11
83	22
84	32
85	167
86	35
87	15
88	9
89	16
90	9
91	17
92	54
93	22
94	22
95	76
96	112
97	94
98	42
99	16
100	10
101	5
102	21
103	537
104	670
105	999
106	86
107	10
108	5
109	12
110	19
111	19
112	48
113	270
114	29
115	15
116	10
117	39
118	10
119	8
120	25
121	163
122	73
123	11
124	4
125	4
126	7
127	21
128	15
129	28
130	17
131	11
132	7
133	11
134	17
135	10
136	12
137	11
138	11
139	17
140	11
141	9
142	7
143	10
144	15
145	20
146	11
147	10
148	17
149	5
150	3
151	3
152	5
153	7
154	10
155	13
156	12
157	13
158	9
159	8
160	29
161	30
162	23
163	10
164	28
165	6
166	3
167	8
168	18
169	14
170	26
171	68
172	168
173	258
174	69
175	10
176	4
177	3
178	9
179	8
180	7
181	8
182	16
183	9
184	13
185	17
186	34
187	22
188	8
189	10
190	10
191	7
192	3
193	3
194	19
195	203
196	59
197	29
198	163
199	331
200	214
201	31
202	7
203	2
204	3
205	2
206	3
207	3
208	2
209	3
210	2
211	8
212	11
213	15
214	9
215	18
216	14
217	10
218	105
219	15
220	4
221	1
222	2
223	3
224	8
225	6
226	9
227	10
228	3
229	1
230	1
231	1
232	16
233	6
234	2
235	2
236	1
237	1
238	2
239	3
240	7
241	67
242	157
243	27
244	3
247	1
248	6
249	1
276	1
277	1
278	1
