Mass Spectrum: 6-Ethyl-5-[1-piperidinyl]-2,4(1H,3H)-pyrimidinedione
Formula: C11H17N3O2
CAS: 96539-88-7
Molecular weight: 223
m/z	intensity
41	488
42	242
44	138
45	4
46	0
47	7
48	3
49	30
50	3
51	19
52	23
53	51
54	103
55	119
56	220
57	33
58	3
59	1
60	0
61	1
63	4
64	7
65	33
66	65
67	139
68	421
69	304
70	335
71	35
72	11
73	4
74	3
75	5
77	43
78	45
79	46
80	90
81	93
82	141
83	19
84	999
85	47
86	20
88	4
89	4
91	10
92	6
93	16
94	7
95	75
96	102
97	34
98	11
99	2
101	0
103	5
105	3
106	12
107	10
108	16
109	58
110	36
111	50
112	28
113	8
117	1
118	1
119	4
120	6
121	14
122	20
123	79
124	26
125	7
126	7
127	6
132	0
133	1
134	13
135	14
136	9
137	35
138	2
139	146
140	62
141	17
142	1
147	3
148	4
149	20
151	113
152	60
153	40
154	94
155	627
156	47
157	4
160	2
161	2
162	4
163	15
164	45
165	49
166	363
167	34
168	512
169	33
170	2
175	0
176	1
177	24
178	15
179	19
180	52
181	130
182	62
183	5
190	0
191	6
192	3
193	1
194	256
195	30
196	2
206	5
208	48
209	28
210	2
220	3
221	1
222	439
223	999
224	128
225	7
