Mass Spectrum: d-Galactitol, 1-O-phenyl-, pentaacetate
Formula: C22H28O11
CAS: 96532-74-0
Molecular weight: 468
m/z	intensity
26	1
27	4
28	5
29	3
30	0
31	3
37	0
38	1
39	9
40	2
41	5
42	10
43	999
44	21
45	6
50	1
51	7
52	1
53	2
54	0
55	18
56	2
57	5
58	0
59	5
60	5
61	7
62	0
63	1
64	1
65	11
66	7
67	3
68	3
69	32
70	4
71	4
72	0
73	23
74	1
75	0
76	0
77	41
78	5
79	13
80	1
81	33
82	4
83	19
84	2
85	32
86	9
87	8
88	0
89	0
91	4
92	0
93	10
94	97
95	18
96	1
97	23
98	6
99	12
100	1
101	11
102	3
103	31
104	1
105	2
106	0
107	30
108	5
109	3
110	7
111	142
112	12
113	4
114	0
115	64
116	8
117	2
118	0
119	5
120	0
121	2
123	0
125	1
126	0
127	17
128	7
129	17
130	1
131	10
132	0
133	5
134	0
135	1
136	12
137	3
138	0
139	17
140	2
141	13
142	1
143	5
144	1
145	15
146	1
147	3
148	0
149	61
150	7
151	0
152	3
153	367
154	32
155	4
156	1
157	17
158	3
159	2
160	0
161	6
162	1
163	0
166	0
167	0
169	3
170	2
171	32
172	3
173	11
174	1
175	3
179	0
182	0
183	0
185	1
186	2
187	19
188	2
189	2
191	17
192	2
193	0
195	2
196	0
197	1
198	1
199	2
200	0
201	0
203	3
204	3
205	1
206	0
212	0
213	38
214	4
215	0
217	3
221	4
222	0
229	0
231	19
232	2
233	5
234	0
243	0
245	2
246	2
247	1
249	0
251	0
257	0
258	0
259	2
263	0
265	0
273	99
274	13
275	3
288	0
289	0
291	4
292	0
293	3
294	0
306	0
307	0
315	3
316	0
323	0
333	11
334	2
335	0
348	0
375	240
376	41
377	9
378	0
395	0
409	1
410	0
468	8
469	2
470	0
