Mass Spectrum: 9-Borabicyclo[3.3.1]nonane, 9-[(methylsulfonyl)oxy]-
Formula: C9H17BO3S
CAS: 96532-76-2
Molecular weight: 216
m/z	intensity
26	13
27	154
28	55
29	186
30	6
34	0
37	8
38	6
39	237
40	36
41	564
42	55
43	201
44	7
45	8
46	6
47	5
50	11
51	17
52	18
53	109
54	88
55	414
57	47
58	2
59	0
61	2
62	1
63	60
64	21
65	35
66	75
67	999
68	110
69	473
71	11
73	3
75	0
76	9
77	55
78	16
79	198
80	73
81	401
82	72
83	47
85	3
86	5
87	7
88	5
89	9
90	16
91	69
92	95
93	57
94	115
95	752
96	4
99	3
103	0
104	4
105	16
106	41
107	147
108	76
109	317
110	8
111	10
113	6
114	6
115	4
116	2
117	6
118	8
119	146
120	504
121	52
122	8
125	1
127	7
128	5
132	11
133	25
134	14
135	20
136	65
137	216
140	6
145	1
146	16
147	23
148	7
149	1
152	4
153	4
156	6
158	4
159	3
160	4
161	10
162	1
172	2
173	14
174	61
175	178
176	12
177	9
186	2
187	18
188	24
189	3
199	5
201	2
214	2
215	133
216	490
217	64
218	26
219	2
