Mass Spectrum: Pyrimidine, 2-fluoro-4-amino-
Formula: C4H4FN3
CAS: 96548-91-3
Molecular weight: 113
m/z	intensity
25	3
26	48
27	35
28	89
29	4
30	3
31	38
32	4
34	10
38	20
39	31
40	115
41	217
42	65
43	24
44	31
45	11
46	54
47	28
48	5
50	3
51	19
52	50
53	24
55	4
57	4
58	23
59	41
60	3
62	19
65	4
66	41
67	192
68	37
69	10
70	51
71	27
72	14
73	7
77	4
85	39
86	475
87	45
93	2
94	33
95	2
97	5
100	1
105	3
112	28
113	999
114	62
115	2
