Mass Spectrum: 3-Bromomethyl-indole-1-carboxylic acid, t-butyl ester
Formula: C14H16BrNO2
CAS: 96551-21-2
Molecular weight: 309
m/z	intensity
25	2
26	19
27	107
28	69
29	318
30	9
31	3
35	2
36	4
37	20
38	39
39	245
40	49
41	738
42	47
43	52
44	171
45	6
46	1
47	4
48	1
49	12
50	108
51	143
52	62
53	28
54	10
55	86
56	174
57	900
58	144
59	5
60	4
61	10
62	26
63	71
64	17
65	9
66	1
67	3
68	2
69	8
70	3
71	7
72	1
73	12
74	66
75	117
76	176
77	97
78	30
79	42
80	94
81	41
82	92
83	5
84	2
85	4
86	4
87	11
88	5
89	10
90	5
91	11
92	1
93	2
94	1
95	3
96	2
97	5
98	9
99	8
100	10
101	74
102	360
103	117
104	12
105	2
107	1
108	1
109	2
110	1
111	2
112	1
113	1
114	2
115	4
116	3
117	11
118	1
119	11
120	1
121	4
122	1
123	2
124	1
125	1
126	1
127	11
128	120
129	529
130	999
131	187
132	13
133	1
139	1
140	1
141	2
142	2
143	3
144	3
145	3
146	1
147	1
148	1
149	9
150	1
151	1
152	2
153	1
154	2
155	1
156	2
157	2
158	5
159	1
167	1
168	1
169	0
170	2
171	2
172	1
173	2
174	485
175	89
176	9
177	1
180	0
183	2
184	1
185	2
186	8
187	1
188	0
189	1
199	2
201	3
202	1
207	1
208	24
209	4
210	23
211	3
212	0
224	0
230	124
231	26
232	3
236	31
237	4
238	30
239	3
250	2
252	2
253	42
254	7
255	41
256	8
257	3
294	0
296	0
309	34
310	5
311	33
312	5
313	0
