Mass Spectrum: 6-Methylthio-1-[2,3,5-tri-O-benzoyl-.beta.-d-ribofuranosyl]pyrazolo[3,4-d]pyrimidin-4(5H)-one-3-carboxamide
Formula: C33H27N5O9S
CAS: 96555-46-3
Molecular weight: 669
m/z	intensity
41	28
42	25
43	58
44	23
45	43
46	6
47	17
48	3
49	18
50	68
51	141
52	28
53	26
54	5
55	24
56	7
57	31
58	4
59	5
60	5
61	5
62	3
63	7
64	4
65	12
66	11
67	7
68	26
69	18
70	7
71	10
72	6
73	14
74	31
75	25
76	31
77	416
78	45
79	14
80	7
81	9
82	4
83	8
84	5
85	7
86	18
87	2
88	1
89	1
90	0
91	26
92	11
93	6
94	11
95	7
96	7
97	11
98	3
99	5
100	4
101	4
102	5
103	3
104	14
105	999
106	179
107	17
108	1
109	2
110	2
111	3
112	3
113	4
114	11
115	3
116	0
117	5
118	1
119	1
120	2
121	5
122	171
123	43
124	10
125	2
126	1
127	1
128	2
129	0
130	0
131	3
133	1
134	1
135	7
136	8
138	4
139	4
140	1
141	0
145	1
146	1
147	2
148	1
149	7
150	3
151	8
152	5
153	3
154	1
155	1
156	2
157	0
160	1
161	5
162	27
163	5
164	1
165	6
166	6
167	3
169	5
170	1
174	8
175	1
177	4
178	2
179	2
180	2
181	2
182	1
188	1
189	1
190	6
191	3
192	4
193	4
194	11
195	3
196	1
198	1
200	1
201	155
202	21
203	2
205	1
206	1
207	10
208	8
209	8
210	1
211	1
217	2
218	10
219	2
221	1
222	2
223	3
224	1
225	7
226	20
227	3
228	1
234	0
235	1
236	2
238	1
239	42
240	5
241	2
253	1
254	6
255	1
261	1
263	1
265	1
268	0
273	1
278	2
279	1
280	1
282	0
284	1
287	1
292	1
294	6
295	1
302	1
303	0
304	13
305	2
306	1
314	0
320	2
321	1
322	7
323	1
329	1
330	12
331	2
332	0
341	1
355	0
358	2
381	3
382	0
383	5
384	2
406	0
425	1
426	5
427	1
442	1
445	182
446	51
447	9
448	1
503	4
504	1
547	0
548	1
