Mass Spectrum: 2-Methylbutanoic acid, 3-(t-butyldimethylsilyloxy)-, methyl ester
Formula: C12H26O3Si
CAS: 96597-33-0
Molecular weight: 246
m/z	intensity
26	1
27	9
28	0
29	25
30	1
31	5
38	1
39	11
40	1
41	29
42	4
43	24
44	6
45	27
46	2
47	26
48	1
49	1
50	1
51	4
52	1
53	4
54	2
55	19
56	7
57	15
58	27
59	125
60	11
61	19
62	1
63	1
64	1
65	2
66	3
67	1
68	1
69	3
70	2
71	3
72	6
73	349
74	32
75	172
76	13
77	8
78	1
79	2
80	0
81	1
82	1
83	7
84	2
85	8
86	4
87	9
88	7
89	999
90	81
91	42
92	2
93	1
97	2
98	1
99	17
100	3
101	15
102	4
103	50
104	6
105	3
107	1
109	1
110	0
111	1
112	0
113	5
114	2
115	122
116	14
117	9
118	1
119	9
120	1
121	0
127	1
128	8
129	10
130	3
131	33
132	5
133	300
134	34
135	14
136	1
140	1
141	1
143	3
144	1
145	49
146	7
147	125
148	19
149	10
150	1
151	0
152	0
155	1
156	0
157	7
158	2
159	116
160	16
161	6
162	0
173	6
174	1
175	20
176	3
177	1
186	1
187	2
189	467
190	68
191	24
192	3
193	0
199	1
200	1
203	2
231	17
232	3
245	1
