Mass Spectrum: 4-[2-[1H-Indol-3-yl]ethyl]benzenamine
Formula: C16H16N2
CAS: 96616-22-7
Molecular weight: 236
m/z	intensity
41	11
42	6
43	8
44	3
45	2
47	4
48	1
49	19
50	12
51	43
52	24
53	18
54	10
55	5
56	3
57	5
59	0
60	1
61	0
62	5
63	22
64	7
65	17
66	8
67	6
68	1
69	3
70	2
71	3
73	2
74	5
75	13
76	19
77	200
78	38
79	31
80	10
81	2
82	2
83	2
84	14
86	10
87	3
88	5
89	21
90	10
91	9
92	2
93	5
94	2
95	4
96	1
97	1
98	1
99	2
101	11
102	48
103	79
104	22
106	952
107	163
108	12
110	2
111	1
113	3
114	3
115	14
116	11
117	12
118	6
119	3
120	2
121	2
123	0
124	2
125	0
126	2
127	2
128	28
129	14
130	999
131	94
132	4
137	1
139	3
140	3
141	2
142	3
143	3
148	1
149	3
150	2
151	2
152	2
153	0
154	1
159	0
162	5
163	1
164	1
165	2
166	1
167	2
176	2
177	1
178	2
179	0
180	1
189	2
190	1
191	2
192	0
193	0
202	0
203	1
204	4
205	1
206	1
215	0
216	3
217	5
218	3
219	3
220	0
232	0
233	3
234	7
235	4
236	275
237	51
238	4
