Mass Spectrum: 4-[2-[1,3-Benzodioxol-5-yl]ethyl]benzenamine
Formula: C15H15NO2
CAS: 96632-96-1
Molecular weight: 241
m/z	intensity
41	5
42	0
43	0
47	1
49	6
50	8
51	53
52	13
53	12
54	5
55	1
56	0
57	0
58	0
61	0
62	5
63	17
64	5
65	15
66	6
67	5
69	0
70	0
71	0
74	3
75	4
76	9
77	152
78	38
79	32
80	9
81	0
82	0
84	7
86	4
87	1
88	2
89	14
90	9
91	10
92	2
93	3
94	0
96	0
98	0
99	0
101	1
102	2
103	5
104	4
105	23
106	999
107	17
108	3
109	0
113	1
114	0
115	4
116	1
117	4
118	6
119	5
120	1
121	0
123	0
124	0
126	2
127	2
128	2
129	0
130	2
133	1
134	8
135	116
136	9
137	1
139	2
140	0
141	1
143	1
147	2
148	1
149	0
150	0
151	2
152	6
153	3
154	2
155	0
156	0
163	2
164	1
165	7
166	2
167	2
168	0
178	1
180	7
181	2
182	1
192	2
193	0
208	0
209	0
210	1
212	2
224	0
239	4
240	1
241	336
242	56
243	5
