Mass Spectrum: 2H-Cycloprop[c]indene-2,3(3ah)-dione, hexahydro-3a,7,7-trimethyl-
Formula: C13H18O2
CAS: 96678-99-8
Molecular weight: 206
m/z	intensity
15	1
26	2
27	64
28	9
29	38
38	4
39	86
40	15
41	138
42	10
43	55
44	2
50	7
51	28
52	15
53	55
54	8
55	137
56	10
57	18
58	5
59	6
60	3
62	3
63	12
64	6
65	43
66	14
67	59
68	9
69	49
70	12
71	5
72	1
73	3
74	6
75	2
76	2
77	88
78	22
79	162
80	43
81	114
82	32
83	12
84	1
85	2
86	1
87	1
89	3
90	1
91	106
92	19
93	193
94	43
95	55
96	68
97	9
98	2
99	2
102	2
103	10
104	6
105	78
106	16
107	145
108	89
109	80
110	36
111	6
112	1
115	9
116	3
117	13
118	3
119	40
120	20
121	208
122	163
123	999
124	102
125	9
126	1
127	1
128	3
129	4
130	4
131	8
132	6
133	9
134	5
135	94
136	28
137	13
138	25
139	4
140	1
141	1
143	1
144	1
145	51
146	8
147	6
148	3
149	61
150	56
151	24
152	3
155	1
157	1
158	2
159	3
160	4
161	3
162	2
163	310
164	40
165	4
173	14
174	2
175	13
176	3
177	4
178	39
179	5
180	1
188	3
189	1
190	4
191	54
192	8
193	1
205	1
206	483
207	72
208	7
