Mass Spectrum: Propanoic acid, 2-allyloxy-, ethyl ester
Formula: C8H14O3
CAS: 96692-31-8
Molecular weight: 158
m/z	intensity
25	0
26	22
27	131
28	57
29	302
30	14
31	23
36	0
37	2
38	7
39	162
40	24
41	999
42	85
43	642
44	18
45	196
46	4
47	1
52	0
53	1
54	0
55	38
56	36
57	39
58	14
59	9
60	0
61	0
64	0
65	0
66	0
67	1
68	0
69	4
70	1
71	2
72	0
73	48
74	115
75	10
76	1
77	0
81	1
83	4
84	5
85	652
86	36
87	6
88	0
89	0
92	0
94	0
96	0
97	0
99	0
100	1
101	4
102	345
103	20
104	1
105	0
112	0
114	1
115	16
116	1
117	0
119	0
157	0
158	14
159	1
