Mass Spectrum: Hydrazine, N1-(4-dimethylaminobenzylideno)-N2-(5-nitrofurfurylideno)-
Formula: C14H14N4O3
CAS: 96716-21-1
Molecular weight: 286
m/z	intensity
33	11
34	0
36	4
37	141
38	452
39	202
41	131
42	312
43	51
44	42
46	67
50	420
51	999
52	156
54	198
55	36
57	16
59	4
60	3
61	10
62	39
63	145
64	102
65	140
66	45
67	24
68	74
69	11
70	4
71	3
72	2
73	10
74	20
75	34
76	79
77	191
78	84
79	376
80	52
81	12
82	65
84	9
85	2
86	5
87	12
88	12
89	131
90	75
91	147
92	58
93	28
94	7
96	81
97	4
98	1
99	1
100	4
101	5
102	38
103	46
104	70
105	78
106	8
107	2
108	3
109	1
110	1
111	1
112	1
113	1
114	3
115	11
116	22
117	94
118	183
119	87
120	44
121	8
122	1
123	1
124	0
125	1
126	0
127	2
128	8
129	26
130	22
131	45
132	113
133	45
134	8
135	3
136	0
137	0
139	8
140	6
141	11
143	14
144	11
145	81
146	37
147	75
148	13
149	3
150	0
152	0
153	1
154	2
155	2
156	2
157	6
158	12
159	5
160	2
161	3
162	2
163	0
165	0
166	0
167	11
168	24
169	16
170	5
171	4
172	7
173	4
174	12
175	3
176	0
177	1
178	0
179	1
180	0
181	3
182	5
183	8
184	36
185	13
186	1
187	0
191	0
193	7
194	2
195	2
196	6
197	18
198	4
199	2
200	4
201	7
202	1
209	0
210	2
211	4
212	9
213	4
214	0
222	0
224	1
225	0
226	0
228	2
229	1
238	0
239	0
240	1
242	0
255	0
256	1
257	1
258	1
259	1
266	0
269	0
270	0
277	0
278	3
281	0
282	1
283	2
284	3
285	8
286	42
287	6
288	0
