Mass Spectrum: 6,11,12,17-Tetraacetoxy-5,18-trinaphthylenedione
Formula: C38H24O10
CAS: 96722-24-6
Molecular weight: 640
m/z	intensity
43	999
44	10
47	18
48	12
51	13
53	12
55	55
56	46
57	27
58	10
59	30
60	10
61	0
64	14
67	14
69	30
71	15
74	93
77	42
79	13
81	18
82	21
83	79
85	44
87	30
91	30
93	14
95	14
97	11
98	13
105	51
115	12
116	10
119	18
121	21
123	13
128	27
129	21
131	17
133	14
147	14
149	10
163	25
203	11
205	18
298	10
311	19
313	15
327	15
340	11
341	14
342	10
369	16
397	27
398	14
425	24
426	39
427	16
453	123
454	463
455	212
456	67
457	15
468	11
469	18
470	43
471	97
472	103
473	34
496	64
497	28
498	20
514	57
515	19
530	12
538	10
556	127
557	47
598	57
599	22
640	16
