Mass Spectrum: 12,17-Diacetoxy-5,6,11,18-trinaphthylenetetrone
Formula: C34H18O8
CAS: 96722-26-8
Molecular weight: 554
m/z	intensity
41	114
42	206
43	999
44	176
45	211
50	58
51	13
53	8
55	16
57	12
60	116
65	7
69	6
74	11
75	28
76	112
77	57
91	12
95	7
98	7
99	7
104	17
105	79
122	7
124	9
136	13
137	19
148	9
149	66
150	38
155	9
156	8
161	18
162	13
164	12
168	12
178	13
182	28
192	7
198	11
206	9
211	28
220	7
222	11
223	18
224	35
225	59
234	15
235	12
236	6
237	14
249	4
252	5
253	7
272	7
275	5
285	13
296	10
297	14
298	66
299	25
300	36
302	4
309	19
311	47
312	24
313	44
314	11
324	22
327	50
328	26
329	12
330	9
335	21
336	11
337	24
338	5
339	7
340	11
341	15
342	12
355	14
356	34
357	23
358	7
365	16
366	8
367	6
368	15
369	20
370	21
382	12
383	10
384	48
385	33
394	28
395	6
396	7
397	37
398	30
410	6
411	14
412	99
413	40
421	9
422	21
423	8
425	17
426	38
427	9
438	18
439	13
440	81
441	29
442	10
450	264
451	110
452	31
453	40
454	370
455	113
456	22
468	265
469	151
470	423
471	124
472	21
496	26
497	16
512	78
513	20
554	12
