Mass Spectrum: 17-Acetoxy-12-methoxy-5,6,11,18-trinaphthylenetetrone
Formula: C33H18O7
CAS: 96722-28-0
Molecular weight: 526
m/z	intensity
41	26
42	98
43	999
44	106
45	166
60	126
74	12
76	11
77	14
105	15
298	15
300	12
311	10
385	10
413	15
453	30
454	21
468	16
469	184
470	82
471	21
483	15
484	114
485	35
486	8
487	1
496	1
497	1
498	4
512	2
526	7
527	2
