Mass Spectrum: N-Chloro-N,O-bis(methylsulfonyl)hydroxylamine
Formula: C2H6ClNO5S2
CAS: 96733-44-7
Molecular weight: 223
m/z	intensity
29	440
30	890
31	240
32	250
33	60
34	60
35	70
36	420
38	140
44	220
45	350
46	300
47	120
48	630
49	330
50	180
51	70
62	70
63	430
64	680
65	330
66	110
78	300
79	999
80	680
81	400
82	160
92	230
94	270
95	320
96	80
97	100
111	190
126	150
127	70
141	100
142	70
143	150
158	140
175	40
188	90
