Mass Spectrum: 3.beta.-Acetoxyergosta-4,6,22-triene
Formula: C30H46O2
CAS: 96737-73-4
Molecular weight: 438
m/z	intensity
41	203
43	254
45	80
55	587
57	254
60	62
67	261
69	999
70	76
71	62
77	62
79	170
81	409
82	69
83	279
91	268
93	239
94	51
95	312
97	58
105	322
106	54
107	254
108	51
109	254
115	65
117	167
118	80
119	348
120	145
121	123
123	76
124	58
125	565
126	58
128	112
129	188
130	58
131	203
132	69
133	326
134	101
135	243
136	51
141	159
142	123
143	391
144	116
145	246
146	72
147	167
149	138
155	98
156	58
157	333
158	123
159	188
161	159
169	62
171	116
173	69
175	87
183	69
189	123
197	87
199	51
211	91
251	58
253	355
254	94
255	83
259	127
271	170
363	76
378	667
379	232
380	120
381	51
396	985
397	301
398	51
438	275
439	94
