Mass Spectrum: Adenosine, N6-phenylacetic acid
Formula: C18H19N5O6
CAS: 96760-57-5
Molecular weight: 401
m/z	intensity
41	284
42	344
43	647
44	480
45	352
46	5
47	93
49	99
50	19
51	88
52	18
53	83
54	84
55	384
56	164
57	999
58	267
59	26
60	309
61	129
63	23
65	77
66	11
67	39
68	218
69	162
70	35
71	218
72	97
73	417
74	65
77	80
78	38
79	35
81	37
83	54
84	99
85	163
86	198
87	23
89	38
90	18
91	77
92	52
94	11
95	45
96	74
97	50
98	39
99	5
101	47
102	27
103	46
104	12
106	202
107	32
111	24
112	21
114	77
115	29
119	17
124	5
133	23
135	18
136	52
143	11
151	11
224	228
225	85
268	79
269	149
270	24
