Mass Spectrum: Phenylalanine, N-trifluoroacetyl-4-amino-, methyl ester
Formula: C12H13F3N2O3
CAS: 96760-74-6
Molecular weight: 290
m/z	intensity
41	5
44	5
49	33
50	2
51	19
52	6
53	2
59	39
65	17
69	79
77	61
78	33
79	23
80	2
84	24
86	11
89	2
91	11
93	10
96	2
104	23
105	20
106	999
107	84
116	5
117	13
118	29
119	7
133	2
134	13
146	15
177	28
231	21
290	85
291	6
