Mass Spectrum: Acetohexamide
Formula: C15H20N2O4S
CAS: 968-81-0
Molecular weight: 324
m/z	intensity
41	130
42	71
43	475
44	8
45	12
46	7
48	7
50	144
51	67
52	25
53	39
54	69
55	132
56	999
57	50
58	7
60	3
61	16
62	15
63	40
64	31
65	65
66	13
67	108
68	25
69	64
70	85
71	10
73	13
74	43
75	131
76	200
77	105
78	16
79	35
80	20
81	66
82	134
83	89
84	12
85	13
86	4
87	5
89	33
90	37
91	200
92	40
93	22
94	7
95	10
96	37
97	72
98	304
99	101
100	9
101	3
102	2
103	10
104	137
105	22
106	15
107	23
108	16
109	10
110	7
111	8
112	3
113	3
115	2
117	5
118	7
119	292
120	118
121	95
122	9
123	9
124	20
125	163
126	17
129	3
130	5
131	3
132	4
133	12
134	3
135	77
136	38
137	26
138	4
139	50
140	17
141	289
142	27
143	3
146	10
149	3
152	23
153	8
156	16
157	4
163	4
167	8
168	3
169	4
174	9
178	5
179	9
182	22
183	98
184	209
185	22
186	11
199	26
200	17
201	4
210	304
211	30
212	16
217	3
225	23
226	5
238	3
243	85
244	9
245	4
281	27
282	4
324	19
325	3
