Mass Spectrum: Piperazine, 1,4-dimethyl-2,3-diphenyl-
Formula: C18H22N2
CAS: 96819-58-8
Molecular weight: 266
m/z	intensity
15	40
27	30
28	30
39	50
42	350
51	90
63	40
65	60
77	140
78	80
91	300
103	50
104	80
105	50
118	999
119	460
132	380
133	90
146	830
147	350
152	30
165	40
175	30
178	90
179	60
180	60
210	40
251	180
266	620
267	130
