Mass Spectrum: Propanoic acid, 2-(benzoylthio)-, ethyl ester
Formula: C12H14O3S
CAS: 96843-07-1
Molecular weight: 238
m/z	intensity
39	10
43	4
44	4
45	27
50	40
51	149
52	7
55	9
56	10
58	3
59	16
60	11
61	6
65	5
74	4
75	5
77	345
78	23
105	999
106	72
107	4
109	4
165	9
193	20
238	13
