Mass Spectrum: 3-(3-Cyano-4-hydroxyphenyl)-l-alanine
Formula: C10H10N2O3
CAS: 96844-03-0
Molecular weight: 206
m/z	intensity
19	7
22	0
24	0
25	0
26	9
27	29
28	244
29	41
30	65
31	2
32	2
33	0
34	2
35	2
36	15
37	3
38	11
39	30
40	6
41	13
42	33
43	36
44	42
45	16
46	76
47	3
48	1
49	1
50	20
51	75
52	49
53	42
54	7
55	10
56	13
57	49
58	3
59	1
60	2
61	4
62	10
63	27
64	14
65	13
66	16
67	10
68	2
69	2
70	1
71	1
72	1
73	3
74	999
75	122
76	33
77	114
78	39
79	12
80	7
81	16
82	1
83	1
84	1
85	0
86	1
87	3
88	10
89	28
90	9
91	8
92	3
93	2
94	2
95	0
96	0
97	0
98	1
99	2
100	1
101	2
102	9
103	11
104	34
105	32
106	47
107	9
108	1
109	0
110	0
111	0
112	1
113	0
114	4
115	37
116	42
117	9
118	2
119	3
120	4
121	0
122	0
123	0
124	0
125	0
126	1
127	1
128	1
129	2
130	2
132	263
133	142
134	22
135	2
136	0
137	0
138	0
139	0
140	0
141	1
142	1
143	5
144	47
145	19
146	7
147	2
148	0
149	1
150	2
151	1
152	0
153	0
154	0
155	0
156	0
157	1
158	4
159	9
160	28
161	109
162	15
163	2
164	0
165	0
166	0
167	0
168	0
169	0
170	0
171	0
172	1
173	1
174	0
175	0
177	0
178	0
179	0
180	0
183	0
185	0
186	0
187	0
188	11
189	2
190	0
191	0
193	0
196	0
197	0
198	0
199	0
200	0
202	0
203	0
204	0
205	1
206	58
207	11
208	2
