Mass Spectrum: Xanthine, 1,3-dipropyl-8-[(4-carboxymethoxy)phenyl]-
Formula: C19H22N4O5
CAS: 96865-83-7
Molecular weight: 386
m/z	intensity
41	191
42	436
43	391
44	999
45	506
46	452
50	18
51	32
52	20
53	46
54	59
55	113
56	86
57	97
58	60
59	28
60	76
61	11
63	8
64	28
65	33
66	42
67	63
68	36
69	62
70	37
71	41
72	57
73	386
74	29
77	31
78	7
79	16
81	23
82	26
83	37
84	33
85	21
91	32
93	16
94	29
95	19
96	19
97	33
98	18
99	8
102	8
104	8
105	7
106	16
107	15
112	8
115	8
119	39
120	47
121	36
129	28
178	45
185	17
213	20
214	37
227	8
228	31
243	40
244	79
245	10
246	8
256	11
257	7
258	13
272	89
273	9
285	18
286	63
302	210
303	38
316	37
327	19
328	65
329	18
343	8
344	9
386	76
387	9
