Mass Spectrum: Acetic acid, 4-acetoxy-1-(2-acetoxy-1-methylethyl)-2-methylpentyl ester
Formula: C15H26O6
CAS: 96863-24-0
Molecular weight: 302
m/z	intensity
25	0
26	2
27	14
28	10
29	20
30	1
31	6
38	1
39	16
40	4
41	80
42	43
43	999
44	24
45	14
46	0
51	1
52	1
53	10
54	6
55	78
56	9
57	22
58	11
59	5
60	4
61	41
62	1
63	0
64	0
65	2
66	1
67	21
68	11
69	72
70	243
71	143
72	22
73	4
74	1
75	0
76	0
77	3
78	1
79	7
80	3
81	42
82	25
83	17
89	2
90	0
91	3
92	0
93	8
94	3
95	28
96	21
97	14
98	41
99	269
100	22
101	7
102	0
103	27
104	1
105	1
106	0
107	39
108	4
109	12
110	5
111	6
112	9
113	80
114	14
115	13
116	3
117	1
118	1
119	1
120	1
121	3
122	37
123	32
124	3
125	21
126	3
127	2
128	0
129	34
130	4
131	104
132	6
133	1
134	0
135	0
136	0
137	0
138	1
139	9
140	20
141	18
142	5
143	2
144	0
145	0
146	0
147	0
148	0
149	1
150	0
151	0
152	0
153	0
154	0
155	0
156	3
157	1
158	7
159	5
160	0
161	0
167	0
168	0
169	0
171	0
172	0
173	64
174	6
175	0
181	0
182	1
183	2
184	0
185	4
186	0
190	0
193	0
199	1
200	1
201	2
202	0
203	0
242	0
243	1
244	0
303	0
