Mass Spectrum: Xanthine, 1,3-dipropyl-8-[4-[[(4-hydroxy)phenylamino]carbonyl]methoxyphenyl]-
Formula: C25H27N5O5
CAS: 96865-86-0
Molecular weight: 477
m/z	intensity
41	231
42	318
43	320
44	999
45	202
55	158
56	84
57	128
58	92
59	141
60	114
67	57
69	108
71	28
72	64
73	852
74	173
81	86
83	83
84	25
91	56
97	51
107	56
108	128
109	74
120	56
121	56
122	157
129	89
182	24
197	86
214	72
228	56
244	117
268	24
271	29
285	24
328	28
363	151
393	78
435	51
477	755
478	162
