Mass Spectrum: Chloropromazine sulfoxide
Formula: C17H19ClN2OS
CAS: 969-99-3
Molecular weight: 334
m/z	intensity
58	999
59	109
70	133
72	86
74	176
84	247
85	135
86	255
99	50
102	38
112	46
117	42
139	26
140	23
152	43
153	37
154	25
164	34
166	29
188	25
196	56
197	57
198	79
211	41
214	141
216	45
223	41
232	128
233	186
234	71
235	68
246	489
247	84
248	179
258	33
259	57
260	23
272	80
273	26
274	33
289	31
291	11
317	33
318	74
320	28
334	23
336	8
