Mass Spectrum: 4,5-Dichloro-N-(dibenzylaminomethyl)phthalimide
Formula: C23H18Cl2N2O2
CAS: 96919-15-2
Molecular weight: 424
m/z	intensity
65	120
91	999
118	350
196	450
209	100
210	180
228	120
230	80
232	20
333	90
335	60
337	10
424	40
426	30
428	5
