Mass Spectrum: 6-Methylcyclohexathiazole
Formula: C8H11NS
CAS: 96963-10-9
Molecular weight: 153
m/z	intensity
37	4
38	12
39	102
40	15
41	47
42	1
45	88
46	4
47	5
49	1
50	10
51	30
52	16
53	37
54	5
55	7
56	0
57	3
58	81
59	21
60	5
61	3
62	6
63	14
64	3
65	28
66	7
67	20
68	7
69	56
70	23
71	30
72	4
73	2
74	1
75	2
76	1
77	33
78	10
79	8
80	5
81	11
82	10
83	15
84	157
85	20
86	11
87	0
88	0
90	0
91	35
92	29
93	25
94	7
95	6
96	3
97	37
98	17
99	9
100	1
101	0
103	0
104	3
105	0
106	1
107	0
108	8
109	12
110	11
111	999
112	115
113	66
114	4
115	0
118	4
119	0
120	8
121	5
122	0
123	3
124	24
125	24
126	31
127	3
128	0
135	0
136	13
137	5
138	137
139	12
140	5
150	5
152	79
153	697
154	74
155	30
156	2
