Mass Spectrum: 3Beta,17beta-diacetoxy-5-chloro-6beta-nitro-5alpha-androstane
Formula: C23H34ClNO6
CAS: 96967-47-4
Molecular weight: 455
m/z	intensity
13	1
14	8
15	37
16	3
17	23
18	11
26	1
27	19
28	11
29	60
30	37
31	5
32	1
35	23
36	218
37	8
38	70
39	29
40	6
41	213
42	34
43	999
44	47
45	58
46	5
47	2
50	1
51	9
52	5
53	76
54	11
55	308
56	19
57	63
58	6
59	3
60	51
61	8
62	1
63	5
64	2
65	51
66	15
67	250
68	39
69	103
70	9
71	37
72	4
73	2
74	1
75	3
76	2
77	161
78	38
79	316
80	57
81	591
82	63
83	65
84	13
85	26
86	7
87	3
88	1
89	9
90	5
91	443
92	84
93	463
94	229
95	367
96	44
97	83
98	13
99	13
100	4
101	11
102	6
103	46
104	39
105	460
106	126
107	467
108	107
109	183
110	41
111	48
112	8
113	6
114	3
115	73
116	40
117	178
118	100
119	350
120	146
121	381
122	81
123	93
124	22
125	31
126	10
127	29
128	75
129	142
130	69
131	274
132	86
133	452
134	114
135	144
136	48
137	54
138	12
139	16
140	8
141	84
142	70
143	254
144	120
145	355
146	239
147	469
148	131
149	121
150	29
151	52
152	19
153	35
154	20
155	101
156	60
157	304
158	123
159	275
160	100
161	126
162	36
163	47
164	16
165	56
166	47
167	45
168	29
169	96
170	50
171	141
172	75
173	126
174	48
175	81
176	24
177	29
178	14
179	30
180	15
181	60
182	34
183	140
184	51
185	117
186	50
187	62
188	27
189	39
190	19
191	17
192	14
193	54
194	22
195	88
196	41
197	124
198	52
199	111
200	44
201	42
202	19
203	19
204	10
205	15
206	10
207	25
208	17
209	69
210	38
211	167
212	70
213	134
214	46
215	45
216	26
217	16
218	9
219	12
220	9
221	19
222	16
223	52
224	46
225	184
226	95
227	124
228	46
229	45
230	20
231	20
232	13
233	16
234	10
235	18
236	20
237	125
238	47
239	143
240	44
241	139
242	56
243	36
244	19
245	22
246	16
247	25
248	16
249	49
250	22
251	329
252	181
253	417
254	183
255	75
256	40
257	42
258	23
259	35
260	43
261	27
262	21
263	20
264	15
265	10
266	16
267	20
268	15
269	309
270	135
271	148
272	74
273	35
274	51
275	151
276	34
277	8
278	2
279	4
280	6
281	5
282	44
283	15
284	39
285	22
286	18
287	153
288	229
289	130
290	78
291	40
292	9
293	6
296	5
297	43
298	31
299	80
300	73
301	36
302	125
303	31
304	8
305	44
306	19
307	26
308	9
309	10
310	5
311	180
312	175
313	209
314	589
315	140
316	111
317	43
318	46
319	13
320	11
321	7
322	3
323	12
324	10
325	8
326	12
327	21
328	52
329	138
330	102
331	114
332	33
333	14
334	4
335	5
336	3
337	1
338	2
339	1
340	8
341	12
342	86
343	25
344	44
345	10
346	3
347	96
348	96
349	78
350	38
351	17
352	3
353	1
354	1
355	1
356	1
357	4
358	9
359	85
360	96
361	20
362	5
363	1
365	7
366	2
367	5
368	1
369	1
371	4
372	7
373	13
374	3
375	1
376	7
377	4
378	2
380	6
381	1
382	2
384	1
385	1
386	1
387	1
388	1
389	2
394	1
395	30
396	8
397	10
398	3
402	7
403	2
404	1
407	9
408	3
409	4
410	1
419	1
