Mass Spectrum: Dihydrosarsasapogenin-5,17(20)-dien
Formula: C27H42O3
CAS: 96974-10-6
Molecular weight: 414
m/z	intensity
41	429
43	885
44	80
45	47
51	11
53	131
55	999
57	302
58	7
59	39
63	5
65	59
67	257
69	213
70	8
71	76
73	15
77	92
79	197
81	310
83	240
84	41
85	89
91	270
93	394
95	353
96	30
97	64
98	5
99	33
101	3
103	28
105	312
107	272
108	65
109	95
110	34
111	61
112	32
113	21
114	3
115	56
116	17
117	74
119	119
121	238
123	199
124	26
125	70
126	83
127	9
128	29
129	46
131	108
133	166
135	197
136	44
137	66
138	8
139	27
141	36
142	28
143	65
144	22
145	142
147	167
148	31
149	49
150	24
151	42
152	34
153	45
154	20
155	28
156	19
157	61
159	66
161	98
162	31
163	151
164	179
165	375
166	101
167	81
168	14
169	29
171	38
173	76
174	5
175	87
176	16
177	68
178	66
179	75
180	74
181	255
182	24
183	37
184	3
185	48
187	74
189	43
190	10
191	46
193	154
194	18
195	104
197	37
198	3
199	23
201	31
202	9
203	32
205	54
206	7
207	228
208	77
209	22
211	13
213	32
214	5
215	75
216	8
217	39
218	3
219	32
221	67
222	43
223	12
225	14
227	25
229	20
231	15
232	5
233	36
234	15
235	21
237	9
239	7
241	9
243	8
244	6
245	9
246	25
247	20
248	3
251	4
253	7
255	15
256	4
257	10
259	13
261	3
265	6
267	11
269	9
270	3
271	11
273	11
274	3
275	10
281	3
283	7
284	4
285	16
286	5
287	22
288	21
289	66
295	2
297	6
298	7
299	10
300	9
301	13
303	4
307	3
309	3
311	3
314	4
315	6
316	10
317	9
323	5
324	3
325	6
326	8
327	40
328	7
337	10
338	10
339	16
340	18
341	23
342	14
343	7
345	8
353	6
354	5
355	28
356	9
357	26
358	17
359	3
363	2
367	6
368	4
369	6
370	3
371	22
372	6
379	3
380	3
381	70
382	16
383	8
384	4
385	44
386	17
395	8
396	98
397	48
398	11
399	623
400	127
401	6
412	9
413	37
414	634
415	171
416	26
417	3
