Mass Spectrum: Benzenesulfonamide, 4-chloro-3-nitro-
Formula: C6H5ClN2O4S
CAS: 97-09-6
Molecular weight: 236
m/z	intensity
16	22
20	1
26	5
30	999
31	3
35	5
36	18
37	75
38	95
39	51
45	35
46	205
47	33
48	162
49	63
50	200
51	74
52	69
53	50
54	27
56	2
60	13
61	82
62	161
63	521
64	619
65	63
66	39
67	8
68	13
69	19
70	4
71	7
72	38
73	121
74	375
75	546
76	73
77	3
78	90
79	77
80	162
81	19
82	20
83	13
84	197
85	63
86	82
87	82
88	27
89	43
90	119
91	60
92	14
93	20
94	1
95	78
96	13
97	45
98	86
99	139
100	40
101	45
105	12
106	144
107	167
108	43
109	455
110	446
111	204
112	151
113	49
114	146
115	128
116	55
117	50
121	13
123	1
124	44
125	36
126	351
127	54
128	114
129	26
137	9
138	9
139	8
140	17
141	25
142	232
143	56
144	80
145	24
156	259
157	31
158	100
159	8
172	380
173	316
174	149
175	107
176	8
190	43
192	15
204	10
206	32
208	10
220	354
221	35
222	133
223	12
236	830
237	127
238	314
239	45
240	17
