Mass Spectrum: Benzene, 1-chloro-2,4-dinitro-
Formula: C6H3ClN2O4
CAS: 97-00-7
Molecular weight: 202
m/z	intensity
12	1
14	1
16	2
17	1
18	3
25	2
26	5
27	4
28	25
29	7
30	999
31	3
32	3
35	2
36	6
37	44
38	37
39	9
44	5
45	6
46	20
47	5
48	2
49	20
50	88
51	20
52	10
53	24
54	2
60	9
61	30
62	47
63	223
64	25
65	3
66	5
68	1
69	2
71	2
72	14
73	63
74	271
75	463
76	77
77	7
79	37
80	4
84	88
85	24
86	38
87	14
88	9
89	16
90	4
91	9
92	2
93	3
96	1
97	9
98	44
99	7
100	15
101	2
104	7
106	2
107	98
108	11
109	225
110	330
111	100
112	107
113	14
114	7
115	1
116	4
121	4
124	3
125	5
126	106
127	17
128	35
129	5
139	2
140	8
141	9
142	5
143	3
144	1
155	4
156	54
157	5
158	16
159	1
172	61
173	5
174	18
175	1
186	15
187	1
188	5
202	546
203	37
204	181
205	14
206	2
