Mass Spectrum: Allantoin
Formula: C4H6N4O3
CAS: 97-59-6
Molecular weight: 158
m/z	intensity
17	61
18	13
26	4
27	45
28	20
29	85
30	13
31	11
36	14
38	11
39	3
40	6
41	23
42	154
43	697
44	999
45	52
46	7
54	19
55	97
56	21
59	10
60	501
61	17
68	10
69	17
70	164
71	38
72	12
73	2
74	3
85	12
86	10
87	573
88	24
97	2
98	99
99	32
100	18
103	16
113	52
114	75
115	204
116	8
129	15
130	456
131	23
140	18
141	61
158	4
