Mass Spectrum: Propanoic acid, 2-hydroxy-, ethyl ester
Formula: C5H10O3
CAS: 97-64-3
Molecular weight: 118
m/z	intensity
27	81
28	12
29	140
30	8
31	14
39	0
41	1
42	6
43	59
44	15
45	999
46	26
47	16
53	0
54	0
55	5
56	8
57	1
58	1
61	0
71	1
72	1
73	2
74	1
75	55
76	1
77	0
89	1
90	0
103	4
118	0
119	0
