Mass Spectrum: Acetamide, N-[4-(4-methylphenyl)-2-thiazolyl]-2-(1-piperidynyl)-
Formula: C17H21N3OS
CAS: 97018-84-3
Molecular weight: 315
m/z	intensity
33	0
39	29
40	27
41	151
42	144
43	38
44	63
45	16
46	1
47	4
48	0
50	4
51	12
52	4
53	9
54	9
55	103
56	25
57	12
58	2
59	1
60	0
61	0
62	2
63	9
64	3
65	15
66	2
67	6
68	25
69	53
70	46
71	5
72	1
73	0
74	1
75	3
76	3
77	18
78	6
79	4
80	2
81	2
82	9
83	6
84	150
85	9
86	3
87	1
88	1
89	10
90	5
91	23
92	3
93	3
94	2
95	2
96	21
97	105
98	999
99	86
100	5
102	7
103	9
104	4
105	10
106	2
107	0
108	1
109	0
110	0
111	1
112	0
113	0
114	1
115	12
116	9
117	3
118	7
119	1
120	4
121	4
122	1
123	1
124	12
125	69
126	5
127	1
128	2
129	1
130	1
131	1
132	1
133	1
134	7
135	11
136	2
137	0
138	0
139	0
140	0
141	0
142	0
143	2
144	0
145	3
146	5
147	38
148	42
149	9
150	5
151	1
152	2
153	0
154	0
155	0
156	0
158	3
159	2
160	2
161	1
162	5
163	1
164	0
165	0
166	0
167	0
168	0
169	0
170	0
171	1
172	0
173	0
174	7
175	3
176	2
177	0
178	0
181	0
183	1
185	0
187	2
188	2
189	9
190	41
191	46
192	7
193	2
197	0
199	3
200	0
201	1
202	1
203	2
204	0
205	0
207	0
214	0
215	2
216	4
217	33
218	4
219	1
220	0
229	0
230	0
231	1
232	27
233	3
234	2
235	0
246	0
252	0
253	0
254	0
277	0
278	0
279	0
293	5
294	4
295	1
315	62
316	12
317	3
