Mass Spectrum: (2,6,6-Trimethyl-4-oxo-4,5,6,7-tetrahydro-benzofuran-3-yl)-acetic acid
Formula: C13H16O4
CAS: 97024-74-3
Molecular weight: 236
m/z	intensity
33	0
37	3
38	18
39	143
40	24
41	113
43	999
45	87
46	1
50	20
51	53
52	23
53	57
54	12
55	70
56	14
57	4
58	2
59	1
60	1
61	4
62	18
63	72
64	74
65	64
66	30
67	20
68	5
69	18
70	1
71	2
72	3
73	3
74	7
75	7
76	7
77	74
78	26
79	42
80	10
81	29
82	11
83	11
84	1
85	1
86	4
87	11
88	10
89	11
90	5
91	52
92	15
93	34
94	8
95	13
96	7
97	1
98	0
99	0
100	0
101	2
102	5
103	14
104	6
105	24
106	7
107	27
108	278
109	30
110	5
111	0
112	0
113	0
115	9
116	3
117	5
118	2
119	11
120	2
121	8
122	2
123	7
124	17
125	1
126	0
127	0
128	2
129	2
130	1
131	5
132	3
133	13
134	71
136	705
137	78
138	6
139	1
140	0
141	0
143	0
144	0
145	3
146	1
147	10
148	7
149	12
150	6
152	214
153	21
154	2
155	0
157	0
158	0
159	3
160	1
161	9
162	46
163	6
164	2
165	1
166	0
171	0
173	1
174	1
175	8
176	2
177	9
178	1
179	1
180	1
187	0
190	32
191	28
192	236
193	37
194	3
195	0
203	0
207	0
217	1
218	22
219	4
220	0
221	4
222	0
236	26
237	3
238	0
