Mass Spectrum: 5-Benzoyl-4-amino-3-(2-N-piperidinylethylthio)thieno[2,3-c]isothiazole
Formula: C19H21N3OS3
CAS: 97090-72-7
Molecular weight: 403
m/z	intensity
41	300
42	250
55	200
69	120
70	80
77	270
83	90
91	130
98	999
99	90
105	180
111	90
112	400
113	40
236	30
239	20
259	20
260	10
291	30
292	40
305	30
318	40
403	70
