Mass Spectrum: 5-Benzoyl-4-amino-3-(2-dimethylaminoethylthio)thieno[2,3-c]isothiazole
Formula: C16H17N3OS3
CAS: 97090-75-0
Molecular weight: 363
m/z	intensity
42	200
43	90
44	100
51	100
56	120
58	999
59	80
70	60
71	70
72	700
77	450
91	110
105	220
121	50
259	20
291	40
292	90
305	30
318	30
319	30
363	100
