Mass Spectrum: 5-Benzoyl-4-amino-3-(2-N-morpholinylethylthio)thieno[3,2-d]isothiazole
Formula: C18H19N3O2S3
CAS: 97090-82-9
Molecular weight: 405
m/z	intensity
41	150
42	360
43	100
51	190
54	110
55	270
56	580
57	110
70	190
100	999
101	250
105	500
111	200
113	940
114	700
121	50
145	60
146	100
184	40
186	30
227	60
258	40
259	300
260	200
261	60
291	130
292	180
293	50
305	30
317	20
318	20
319	20
405	100
