Mass Spectrum: 5-Acetyl-4-amino-3-(2-N-piperidinylethylthio)thieno[2,3-c]isothiazole
Formula: C14H19N3OS3
CAS: 97090-69-2
Molecular weight: 341
m/z	intensity
41	270
42	250
43	330
55	270
56	140
69	100
70	70
84	120
96	50
98	999
99	160
110	50
111	100
112	420
113	40
143	20
183	40
197	20
198	30
201	30
229	20
230	20
243	20
256	50
257	10
341	130
