Mass Spectrum: Corymbolone
Formula: C15H24O2
CAS: 97094-19-4
Molecular weight: 236
m/z	intensity
27	135
28	62
29	198
30	8
31	21
37	3
39	289
40	77
41	965
42	182
43	646
44	35
45	42
51	63
52	43
53	311
54	73
55	832
56	374
57	176
59	37
60	31
61	8
62	8
63	16
64	12
65	149
66	47
67	454
68	146
69	797
70	72
71	70
72	58
73	18
74	35
75	9
76	6
77	248
78	47
79	353
80	63
81	316
82	123
83	270
84	332
85	112
86	20
90	5
91	288
92	48
93	441
94	143
95	287
96	160
97	217
98	96
99	94
101	96
102	14
103	41
104	15
105	218
106	54
107	459
108	247
109	999
110	180
111	130
112	100
113	14
114	14
115	43
116	20
117	50
118	60
119	245
120	91
121	242
122	160
123	290
124	365
125	293
126	48
127	69
128	18
129	19
131	49
132	29
133	203
134	93
135	426
136	93
137	340
138	137
139	73
140	22
141	87
143	27
145	27
146	23
147	100
148	85
149	84
150	49
151	176
152	105
153	221
154	26
157	28
158	20
159	37
160	58
161	125
162	71
163	112
164	31
165	55
166	42
167	12
172	7
174	63
175	166
176	109
177	27
179	36
180	45
181	9
182	2
185	34
189	25
190	15
193	25
194	70
200	41
201	11
203	217
204	37
208	27
218	135
219	29
221	32
236	85
237	15
238	2
