Mass Spectrum: 5-Benzoyl-4-amino-3-(2-N-morpholinylethylthio)thieno[2,3-c]isothiazole
Formula: C18H19N3O2S3
CAS: 97090-74-9
Molecular weight: 405
m/z	intensity
41	100
42	250
43	100
51	100
55	250
56	400
58	350
70	200
72	150
77	600
84	120
85	60
91	120
98	150
100	999
101	30
105	350
113	50
114	400
115	40
121	60
145	80
227	50
230	40
259	40
260	30
291	60
292	100
293	30
305	40
317	50
318	50
319	20
405	110
