Mass Spectrum: N(.alpha.)-Benzoyl-l-arginine, ethyl ester
Formula: C15H22N4O3
CAS: 971-21-1
Molecular weight: 306
m/z	intensity
13	1
14	3
15	8
16	6
17	12
18	39
25	4
26	18
27	61
28	69
29	34
30	67
31	157
32	2
39	24
40	7
41	44
42	71
43	207
44	68
45	98
46	44
47	1
49	3
50	38
51	141
52	18
53	8
54	10
55	20
56	26
57	10
58	12
59	36
60	32
61	3
62	3
63	7
64	13
65	5
66	6
67	9
68	50
69	56
70	167
71	14
72	116
73	65
74	13
75	15
76	33
77	596
78	58
79	13
80	3
81	3
82	4
83	21
84	32
85	588
86	181
87	136
88	9
89	3
90	2
91	7
92	7
93	6
94	2
95	9
96	21
97	43
98	31
99	12
100	100
101	16
102	3
103	14
104	20
105	999
106	82
107	9
108	2
109	3
110	12
111	15
112	45
113	157
114	20
115	4
116	4
117	4
118	2
119	4
120	5
121	18
122	50
123	7
124	2
125	2
126	5
127	75
128	8
129	2
130	5
131	2
132	3
133	11
134	15
135	7
136	2
137	5
138	9
139	17
140	7
141	4
142	49
143	6
144	2
145	3
146	8
147	10
148	18
149	6
150	1
151	1
152	3
153	3
154	2
155	11
156	4
157	2
158	3
159	4
160	9
161	23
162	26
163	12
164	8
165	2
166	1
167	2
168	4
169	1
170	1
171	2
172	4
173	27
174	9
175	3
176	8
177	4
179	4
180	2
181	3
183	3
184	3
185	2
186	7
187	4
188	11
189	20
190	27
191	20
192	4
196	3
197	1
198	2
199	6
200	10
201	14
202	4
203	2
204	13
205	2
206	1
207	5
208	1
214	3
215	2
216	12
217	6
218	103
219	18
220	4
221	1
228	1
229	1
231	6
232	148
233	50
234	8
235	1
237	1
240	1
241	1
242	2
243	3
244	2
245	1
246	3
247	2
248	1
259	2
260	14
261	12
262	3
263	1
264	6
265	2
284	2
288	2
289	1
290	1
305	1
306	41
307	9
308	2
