Mass Spectrum: Benzamide, N-[1-(phenylmethyl)-4-piperidinyl]-
Formula: C19H22N2O
CAS: 971-34-6
Molecular weight: 294
m/z	intensity
37	0
38	1
39	12
40	1
41	13
42	31
43	8
44	8
45	0
50	8
51	33
52	5
53	5
54	9
55	29
56	39
57	5
58	0
61	0
62	1
63	5
65	57
66	5
67	7
68	7
69	27
70	14
71	2
72	2
74	1
75	2
77	172
78	15
79	9
80	22
82	999
83	75
84	4
85	1
87	0
89	13
91	712
92	82
93	4
94	1
95	4
96	42
97	5
98	1
99	1
100	1
102	0
103	5
104	33
105	287
106	57
107	5
108	1
111	1
115	2
116	3
117	15
118	54
119	34
120	20
121	9
122	38
123	3
125	0
127	0
128	0
129	3
130	9
132	268
133	35
134	19
135	2
139	1
141	1
142	1
144	55
145	75
146	57
147	14
148	6
149	1
151	0
152	0
153	0
155	0
156	4
158	39
159	7
160	13
161	8
162	10
163	7
164	0
167	1
168	0
170	21
172	201
173	370
174	93
175	45
176	6
177	0
180	0
181	0
185	0
186	1
187	6
188	5
189	37
190	16
191	2
192	0
193	0
194	0
195	1
196	1
201	2
203	135
204	18
205	1
207	0
208	0
209	0
211	0
215	1
216	0
217	5
218	1
220	0
222	0
223	0
251	4
252	1
264	1
265	4
266	1
277	20
278	4
279	1
281	0
292	2
293	9
294	177
295	50
296	7
297	0
