Mass Spectrum: (6-Benzyloxymethyl-2,3,4-trimethylcyclohexyl)formaldehyde 4-phenylsemicarbazone
Formula: C25H33N3O2
CAS: 97117-77-6
Molecular weight: 407
m/z	intensity
15	2
16	3
17	19
18	103
26	7
27	37
28	55
29	20
30	17
31	6
32	8
33	1
36	1
37	14
38	30
39	97
40	28
41	99
42	43
43	68
44	24
45	23
46	42
47	3
49	4
50	29
51	59
52	34
53	38
54	29
55	52
56	20
57	31
58	34
59	16
60	3
61	9
62	16
63	53
64	87
65	202
66	249
67	60
68	22
69	81
70	58
71	25
72	25
73	20
74	10
75	9
76	14
77	139
78	37
79	80
80	21
81	89
82	26
83	39
84	12
85	21
86	7
87	5
88	2
89	19
90	21
91	999
92	216
93	984
94	161
95	51
96	50
97	21
98	5
99	39
100	3
101	2
102	3
103	18
104	18
105	123
106	84
107	152
108	78
109	59
110	12
111	19
112	3
113	2
114	1
115	16
116	12
117	31
118	40
119	449
120	105
121	208
122	89
123	40
124	7
125	9
126	2
127	3
128	7
129	9
130	30
131	60
132	52
133	185
134	83
135	134
136	75
137	68
138	9
139	6
140	1
141	3
142	4
143	9
144	42
145	54
146	153
147	95
148	343
149	146
150	39
151	15
152	38
153	8
154	2
155	3
156	4
157	5
158	15
159	31
160	63
161	86
162	171
163	140
164	73
165	87
166	20
167	10
168	2
169	1
170	2
171	2
172	2
173	3
174	8
175	9
176	9
177	56
178	64
179	24
180	20
181	7
182	5
183	4
184	6
185	2
186	2
187	2
188	4
189	66
190	15
191	75
192	44
193	12
194	10
195	43
196	8
197	20
198	5
199	3
200	2
201	3
202	15
203	38
204	74
205	24
206	6
207	9
208	3
209	2
210	3
211	5
212	21
213	4
214	5
215	6
216	3
217	2
218	4
219	2
220	2
221	42
222	9
223	4
224	7
225	5
226	24
227	5
228	6
229	2
230	4
231	1
234	1
235	5
236	2
237	3
238	3
239	8
240	4
241	2
242	19
243	4
244	1
251	1
252	3
253	2
254	9
255	11
256	13
257	3
258	4
268	6
269	11
270	174
271	42
272	26
273	5
280	2
281	2
282	14
283	9
284	77
285	20
286	47
287	10
288	2
295	1
296	12
297	62
298	20
299	11
300	2
310	1
311	1
312	36
313	11
314	21
315	4
316	8
317	2
330	1
332	3
347	7
348	2
390	1
403	1
405	163
406	49
407	9
408	1
