Mass Spectrum: 2-Aminoethanesulphonic acid, n-pentafluorobenzoyl-, dibutylamide
Formula: C17H23F5N2O3S
CAS: 97142-25-1
Molecular weight: 430
m/z	intensity
55	19
56	70
57	69
59	8
60	146
63	95
64	19
68	21
70	70
78	19
85	132
86	999
87	81
104	19
107	44
116	19
118	19
128	506
146	31
167	97
195	753
203	42
238	145
239	19
302	244
303	42
