Mass Spectrum: 2-Propenamide, N-[2-(dimethylamino)ethyl]-N,2-dimethyl-
Formula: C9H18N2O
CAS: 97168-31-5
Molecular weight: 170
m/z	intensity
38	1
39	221
40	21
41	921
42	196
43	232
44	53
45	2
52	2
53	4
54	4
55	8
56	9
57	3
58	22
59	2
67	1
69	999
70	64
71	6
72	2
82	2
83	7
84	29
85	2
86	29
95	1
96	2
97	1
98	5
99	1
100	1
110	2
112	101
113	6
114	2
126	37
127	4
128	1
140	2
154	123
155	13
156	1
168	2
169	127
170	15
