Mass Spectrum: 2,4-Dinitro-4'-methoxydiphenylsulfone
Formula: C13H10N2O7S
CAS: 972-48-5
Molecular weight: 338
m/z	intensity
29	185
30	206
31	32
32	11
34	21
35	14
36	151
38	110
39	202
40	52
41	215
42	145
43	229
44	289
45	174
46	40
48	195
50	121
51	204
52	191
53	187
54	115
55	187
56	89
57	153
58	22
59	12
60	143
61	12
62	40
63	240
64	321
65	291
66	184
67	154
68	49
69	144
70	64
71	85
72	12
73	111
74	47
75	156
76	199
77	364
78	270
79	264
80	224
81	206
82	81
83	85
84	62
85	53
87	21
89	72
90	47
91	243
92	387
93	236
94	237
95	378
96	154
97	183
98	47
99	56
101	23
102	23
103	17
104	28
105	115
106	79
107	396
108	351
109	273
110	64
111	64
112	49
113	64
114	28
115	70
116	21
117	32
118	24
119	38
120	419
121	140
122	213
123	999
124	423
125	357
126	114
127	204
128	60
129	38
130	10
131	10
132	10
133	10
134	12
135	14
136	19
137	434
138	227
139	395
140	168
141	65
142	21
143	28
145	21
149	36
150	34
151	76
152	119
153	76
154	145
155	404
156	70
157	51
165	14
166	45
167	157
168	55
169	84
170	42
171	346
172	42
173	21
180	10
181	85
182	104
183	107
184	72
185	47
186	38
195	17
196	51
197	136
198	72
210	10
211	40
212	67
213	64
214	21
215	10
218	85
219	12
226	21
227	53
228	17
229	10
241	10
242	85
243	317
244	53
246	10
278	101
279	17
292	21
307	12
308	106
309	55
310	14
337	10
338	566
339	84
340	31
