Mass Spectrum: Di(1-decynyl)mercury
Formula: C20H34Hg
CAS: 97209-13-7
Molecular weight: 476
m/z	intensity
26	1
27	35
28	7
29	80
30	2
38	5
39	81
40	11
41	222
42	25
43	150
44	5
50	6
51	25
52	21
53	77
54	35
55	301
56	36
57	100
58	9
59	1
60	2
62	1
63	8
64	4
65	53
66	28
67	409
68	53
69	137
70	16
71	14
72	1
73	1
74	1
75	2
76	2
77	92
78	31
79	345
80	244
81	999
82	140
83	39
84	5
85	3
87	1
89	8
90	1
91	145
92	44
93	242
94	218
95	831
96	98
97	38
98	6
99	3
100	4
101	6
102	2
103	8
104	4
105	67
106	24
107	175
108	58
109	55
110	11
111	4
112	1
113	1
115	7
116	2
117	9
118	2
119	73
120	24
121	143
122	20
123	15
124	3
125	1
127	1
128	2
129	3
130	1
131	5
132	2
133	62
134	19
135	71
136	100
137	211
138	24
139	2
141	1
145	2
146	1
147	41
148	11
149	10
150	3
151	4
159	1
161	33
162	7
163	4
164	1
173	1
175	22
176	5
177	4
178	1
189	9
190	2
191	1
198	12
199	21
200	29
201	15
202	37
203	7
204	9
205	1
217	9
218	2
231	6
232	1
236	1
237	5
238	8
239	8
240	8
241	6
242	2
243	1
245	3
251	1
252	2
253	4
254	1
255	3
263	1
264	1
274	1
276	1
277	1
278	2
279	1
280	2
281	2
282	2
283	1
284	2
291	1
294	1
295	1
296	1
297	1
298	1
333	1
334	2
335	4
336	6
337	4
338	5
339	3
340	1
346	1
347	2
348	3
349	2
350	4
352	1
363	2
364	3
365	4
366	3
367	5
369	1
377	1
378	2
379	2
380	1
381	2
387	1
388	3
389	5
390	4
391	7
392	2
393	3
394	1
395	2
401	2
402	4
403	7
404	5
405	8
406	4
407	3
408	1
409	1
416	9
417	17
418	24
419	17
420	28
421	6
422	7
423	1
429	1
430	21
431	39
432	54
433	43
434	73
435	26
436	23
437	18
438	3
439	3
444	5
445	8
446	10
447	8
448	11
449	2
450	2
472	1
473	2
474	3
475	2
476	4
