Mass Spectrum: 2-Butanone, 4-hydroxy-3,3-dimethyl-4-phenyl-
Formula: C12H16O2
CAS: 97234-30-5
Molecular weight: 192
m/z	intensity
25	2
26	12
27	86
28	14
29	40
30	2
31	10
36	2
37	16
38	26
39	121
40	22
41	147
42	45
43	477
44	20
45	28
48	2
49	11
50	93
51	191
52	57
53	57
54	5
55	21
56	3
57	44
58	40
59	8
60	2
61	7
62	11
63	22
64	5
65	16
66	5
67	34
68	10
69	25
70	26
71	607
72	38
73	8
74	31
75	21
76	22
77	421
78	103
79	258
80	19
81	2
83	3
84	3
85	31
86	999
87	78
88	6
89	8
90	4
91	47
92	5
95	2
97	2
102	5
103	8
104	6
105	279
106	257
107	256
108	24
109	2
110	2
115	21
116	11
117	45
118	5
119	2
127	2
128	4
129	6
130	2
131	25
132	18
133	6
134	2
159	13
160	2
173	6
174	19
175	3
192	1
