Mass Spectrum: Cyclohexanemethanol, 1-benzoyl-.alpha.-phenyl-
Formula: C20H22O2
CAS: 97234-36-1
Molecular weight: 294
m/z	intensity
25	0
26	3
27	23
28	4
29	13
30	0
31	0
36	0
37	5
38	8
39	33
40	3
41	53
42	4
43	9
44	0
45	0
48	0
49	3
50	44
51	121
52	25
53	16
54	13
55	62
56	4
57	6
58	1
59	0
60	1
61	2
62	3
63	8
64	2
65	6
66	3
67	27
68	4
69	6
70	1
71	3
72	1
73	4
74	15
75	10
76	17
77	415
78	64
79	35
80	6
81	21
82	11
83	18
84	2
85	2
86	1
87	1
88	0
89	3
90	1
91	29
92	5
93	1
94	1
95	2
96	0
97	4
98	1
99	0
101	0
102	2
103	6
105	999
106	298
107	72
108	6
109	6
110	2
111	3
112	1
113	0
114	1
115	14
116	4
117	9
118	2
119	2
120	117
121	16
122	1
123	0
124	0
125	0
126	0
127	4
128	6
129	13
130	3
131	13
132	4
133	89
134	10
135	1
137	0
138	0
139	1
140	0
141	10
142	8
143	4
144	3
145	25
146	12
147	13
148	1
149	3
150	0
151	0
152	1
153	1
154	1
155	3
156	1
157	2
158	1
159	33
160	5
161	0
165	1
166	0
167	1
168	0
169	8
170	9
171	3
172	7
173	4
174	0
175	0
178	0
179	0
180	0
181	0
182	0
183	1
184	0
185	1
186	3
187	53
188	381
189	57
190	4
191	0
205	0
206	0
233	0
276	0
277	0
