Mass Spectrum: 3-(Hydroxyphenylmethyl)-3-methyl-1-phenylpentan-2-one
Formula: C19H22O2
CAS: 97234-48-5
Molecular weight: 282
m/z	intensity
25	8
27	82
28	18
29	174
30	3
31	4
37	11
38	21
39	137
40	15
41	290
42	15
43	131
44	4
45	36
46	4
49	9
50	91
51	228
52	61
53	39
54	7
55	134
56	31
57	999
58	44
59	2
60	2
61	4
62	14
63	49
64	18
65	179
66	12
67	21
68	4
69	211
70	14
71	13
72	5
73	33
74	30
75	20
76	23
77	590
78	93
79	302
80	22
81	4
82	2
83	66
84	108
85	921
86	50
87	5
89	40
90	32
91	977
92	365
93	32
94	2
95	3
97	3
98	33
99	3
102	7
103	18
104	6
105	545
106	348
107	678
108	51
109	3
111	2
113	5
115	36
116	12
117	68
118	13
119	61
120	9
121	38
122	4
127	14
128	43
129	45
130	9
131	76
132	9
133	36
134	5
135	16
141	9
142	7
143	143
144	19
145	63
146	26
147	43
148	8
149	13
155	1
157	3
159	3
161	220
162	27
163	100
164	11
173	8
175	5
176	806
177	106
178	8
180	2
181	5
191	186
198	25
205	2
218	1
223	0
235	0
264	8
265	2
