Mass Spectrum: 3-(Hydroxyphenylmethyl)-2,2,3-trimethyloctan-4-one
Formula: C18H28O2
CAS: 97234-59-8
Molecular weight: 276
m/z	intensity
26	7
27	65
28	21
29	146
30	3
37	10
38	15
39	58
40	6
41	186
42	19
43	375
44	12
49	7
50	65
51	143
52	37
53	19
54	4
55	53
56	23
57	629
58	27
61	3
62	5
63	8
67	6
69	21
70	15
71	7
72	284
73	19
74	25
75	12
76	15
77	356
78	65
79	4
81	3
83	7
84	18
85	999
86	64
87	3
91	3
95	3
97	5
99	3
104	3
105	378
106	408
107	32
108	2
111	2
112	2
113	80
114	166
115	13
128	2
141	5
155	2
170	21
171	2
205	10
206	1
220	3
