Mass Spectrum: 1-[1-(1-Hydroxy-butyl)-cyclopentyl]-2-phenyl-ethanone
Formula: C17H24O2
CAS: 97234-38-3
Molecular weight: 260
m/z	intensity
26	14
27	124
28	30
29	99
30	2
31	4
37	5
38	13
39	122
40	20
41	267
42	35
43	162
44	179
45	6
49	3
50	9
51	22
52	6
53	17
54	6
55	43
56	4
57	49
58	2
61	1
62	6
63	24
64	9
65	105
66	10
67	42
68	18
69	999
70	90
71	18
72	145
73	8
74	2
75	29
76	4
77	11
78	3
79	4
81	4
82	2
83	3
84	2
85	1
86	2
89	25
90	21
91	240
92	100
93	10
95	5
96	31
97	450
99	4
102	1
103	2
104	2
105	3
106	1
107	1
109	2
110	1
111	2
115	7
116	2
117	3
118	5
119	63
120	6
121	3
123	1
127	2
128	3
129	4
141	3
143	2
147	4
149	4
156	1
173	2
188	18
189	2
