Mass Spectrum: Cyclopropanecarboxaldehyde, 2-methyl-2-(4-methyl-3-pentenyl)-, trans-(.+-.)-
Formula: C11H18O
CAS: 97231-35-1
Molecular weight: 166
m/z	intensity
25	4
26	23
27	132
28	20
29	95
30	3
31	8
37	5
38	11
39	175
40	49
41	713
42	53
43	81
44	6
45	5
49	2
50	13
51	31
52	17
53	118
54	36
55	278
56	50
57	25
58	6
59	11
60	1
61	2
62	3
63	9
64	3
65	28
66	18
67	196
68	101
69	999
70	81
71	14
72	8
73	2
74	1
75	2
76	1
77	44
78	15
79	97
80	50
81	126
82	161
83	97
84	26
85	12
86	2
87	1
88	1
89	2
90	1
91	44
92	17
94	25
95	98
96	23
97	64
98	22
99	3
101	1
102	1
104	2
105	34
106	11
107	81
108	28
109	89
110	28
111	11
113	1
115	2
117	3
118	2
119	19
120	7
121	25
122	152
123	176
124	22
125	6
126	2
127	1
128	1
131	1
133	13
134	3
135	6
136	36
137	18
138	5
139	2
141	2
147	6
148	7
149	3
150	1
151	15
152	3
165	4
166	5
167	1
