Mass Spectrum: Dispiro[1,3-dioxolane-2,1'(4'H)-cyclobutadicyclopentene-4',2''-[1,3]dioxolane], 2',5'-dibromooctahydro-
Formula: C14H18Br2O4
CAS: 97238-05-6
Molecular weight: 408
m/z	intensity
26	33
27	333
28	87
29	64
30	5
31	7
34	1
36	3
37	1
38	12
39	217
40	119
41	121
42	27
43	102
44	10
45	251
46	7
47	1
48	2
50	19
51	119
52	107
53	334
54	35
55	643
56	22
57	17
58	11
59	2
60	2
61	2
62	9
63	30
64	12
65	131
66	72
67	74
68	110
69	18
70	1
71	4
73	394
74	16
75	23
76	40
77	241
78	103
79	267
80	30
81	212
82	36
83	11
84	1
85	3
86	24
87	12
88	4
89	197
90	15
91	177
92	35
93	52
94	18
95	22
96	22
97	13
98	9
99	999
100	60
101	7
102	7
103	31
104	24
105	124
106	33
107	111
108	13
109	29
110	2
111	9
112	35
113	39
114	5
115	40
116	15
117	60
118	19
119	41
120	24
121	35
122	23
123	13
124	30
125	259
126	20
127	6
128	6
129	5
130	3
131	44
132	15
133	162
134	28
135	114
136	18
137	59
138	18
139	14
140	1
141	2
143	18
144	12
145	16
146	6
147	16
148	2
149	34
150	24
151	151
152	22
153	13
157	74
158	7
159	22
160	6
161	48
162	15
163	170
164	43
165	60
166	24
167	5
168	1
169	4
170	16
171	5
173	4
174	24
175	8
176	22
177	138
178	25
179	72
180	4
181	2
183	6
184	1
185	6
186	1
187	39
188	35
189	22
190	4
191	3
192	1
193	2
195	4
196	4
197	11
199	9
200	1
201	5
202	1
203	20
204	47
205	138
206	52
207	52
208	6
209	4
210	6
211	4
213	12
214	1
215	14
216	1
217	2
219	4
221	5
222	5
223	45
224	8
225	5
227	1
229	2
230	1
231	7
232	1
233	3
239	1
241	60
242	6
243	85
244	8
245	27
246	2
248	3
249	162
250	121
251	18
252	2
255	1
257	9
258	2
259	11
260	1
267	12
268	1
269	12
270	2
271	3
275	2
277	2
283	3
285	18
286	4
287	18
288	2
299	3
300	1
301	11
302	4
303	11
304	2
329	795
330	124
331	770
332	122
333	13
334	1
365	8
366	2
367	14
368	2
369	6
408	77
409	13
410	138
411	23
412	76
413	10
