Mass Spectrum: 1-Pentanone,1-(1-[hydroxy(phenyl)methyl]cyclobutyl])
Formula: C16H22O2
CAS: 97234-41-8
Molecular weight: 246
m/z	intensity
26	9
27	104
28	27
29	152
30	3
31	5
37	6
38	10
39	75
40	9
41	128
42	15
43	93
44	4
45	9
49	9
50	78
51	195
52	54
53	77
54	52
55	969
56	54
57	395
58	50
59	5
61	5
62	7
63	18
64	4
65	20
66	7
67	39
68	11
69	41
70	266
71	23
72	27
73	9
74	27
75	19
76	19
77	584
78	102
79	247
80	17
81	26
82	28
83	999
84	96
85	237
86	16
87	3
88	5
89	9
90	5
91	89
92	13
93	29
94	6
95	25
96	16
97	28
98	363
99	24
100	6
102	5
103	15
104	16
105	450
106	366
107	278
108	21
109	18
110	51
111	495
112	55
113	7
114	3
115	57
116	45
117	51
118	7
119	3
120	3
121	3
122	3
123	9
124	2
125	159
126	13
127	10
128	40
129	162
130	18
131	11
132	3
133	8
137	6
138	37
139	17
140	781
141	78
142	13
143	110
144	41
145	10
146	2
149	4
151	3
157	4
159	3
160	3
161	14
162	4
169	2
171	77
172	12
173	3
175	4
180	2
185	60
186	28
187	4
189	24
190	3
199	12
200	3
203	5
217	14
218	4
227	6
228	18
229	5
245	3
246	4
