Mass Spectrum: Furan, tetrahydro-2,2-dimethyl-5-(1-methylethyl)-
Formula: C9H18O
CAS: 97265-00-4
Molecular weight: 142
m/z	intensity
24	0
26	11
27	237
29	199
30	6
31	35
37	3
38	8
39	196
40	32
41	482
42	118
43	788
44	28
45	14
46	0
48	2
49	0
50	4
51	12
52	5
53	57
54	14
55	449
56	303
57	91
58	12
59	481
60	14
61	1
62	0
63	1
65	6
66	13
67	30
68	14
69	274
70	316
71	158
72	10
73	20
74	1
77	7
78	2
79	24
80	3
81	999
82	76
83	18
84	52
85	7
91	1
92	1
93	1
94	1
95	2
96	0
97	5
98	42
99	867
100	57
101	3
107	0
108	1
109	94
110	10
111	4
114	1
123	3
124	0
125	1
126	0
127	25
128	2
140	0
141	6
142	1
