Mass Spectrum: Furazano[3,4-b]furazano[3',4':5,6]pyrazino[2,3-E]pyrazine, 4,4a,5,9,9a,10-tetrahydro-
Formula: C6H6N8O2
CAS: 97288-72-7
Molecular weight: 222
m/z	intensity
33	15
34	5
36	5
38	115
40	72
41	451
42	302
43	649
44	22
51	26
53	340
54	94
55	149
56	24
58	102
59	8
64	11
65	29
66	46
67	97
68	108
70	338
73	254
74	1
77	3
78	14
79	5
80	12
81	27
82	21
83	14
84	4
85	1
91	13
94	177
96	91
97	6
100	403
104	1
105	5
106	3
107	21
108	29
109	8
110	15
111	5
112	1
120	20
122	451
124	999
126	1
132	20
134	21
135	16
136	2
138	36
139	0
140	4
162	9
163	28
165	551
190	18
192	483
220	9
222	248
223	17
224	0
