Mass Spectrum: 3-Undecene-2,5,10-trione, 9-(acetyloxy)-6,6-dimethyl-, (E)-(.+-.)-
Formula: C15H22O5
CAS: 97306-49-5
Molecular weight: 282
m/z	intensity
27	23
28	4
29	34
31	3
39	26
40	6
41	98
42	13
43	999
44	43
45	16
51	3
52	2
53	17
54	11
55	96
56	25
57	25
58	2
59	16
61	4
65	4
67	13
68	3
69	115
70	46
71	33
72	3
73	2
74	11
75	4
77	8
79	12
80	2
81	78
82	10
83	66
84	7
85	35
86	7
87	9
91	8
93	11
94	4
95	35
96	6
97	65
98	662
99	76
100	7
101	9
105	4
107	122
108	13
109	41
110	8
111	23
112	4
113	8
114	4
115	3
116	2
117	3
119	15
121	4
123	74
124	19
125	356
126	39
127	25
128	4
129	4
133	4
135	3
137	56
138	9
139	4
140	12
141	236
142	27
143	60
144	6
147	6
149	3
151	12
152	8
153	3
155	11
161	6
165	9
166	3
167	22
168	3
169	3
171	5
179	77
180	39
181	6
185	60
186	8
193	2
197	114
198	29
199	3
221	6
222	5
223	2
238	2
239	37
240	20
241	2
254	1
282	0
