Mass Spectrum: 5H-Benzo[b]pyran-8-ol, 2,3,5,5,8a-pentamethyl-6,7,8,8a-tetrahydro-
Formula: C14H22O2
CAS: 97306-66-6
Molecular weight: 222
m/z	intensity
26	3
27	82
28	9
29	85
30	3
31	17
38	4
39	120
40	21
41	273
42	19
43	999
44	32
45	22
50	11
51	53
52	24
53	118
54	14
55	150
56	19
57	41
58	7
59	22
60	8
61	3
62	3
63	21
64	9
65	80
66	23
67	95
68	13
69	96
70	12
71	25
72	17
73	5
74	5
75	6
76	5
77	164
78	41
79	137
80	24
81	110
82	18
83	34
84	5
85	21
86	12
87	7
88	5
89	9
90	4
91	194
92	29
93	101
94	20
95	102
96	30
97	67
98	9
99	22
100	4
101	4
102	6
103	29
104	14
105	188
106	36
107	132
108	55
109	176
110	43
111	62
112	9
113	5
114	2
115	40
116	17
117	37
118	9
119	104
120	43
121	119
122	213
123	763
124	109
125	42
126	7
127	11
128	20
129	24
130	20
131	39
132	10
133	104
134	20
135	200
136	162
137	248
138	47
139	63
140	13
141	9
142	5
143	10
144	8
145	49
146	22
147	92
148	245
149	287
150	364
151	220
152	103
153	216
154	26
155	7
156	12
157	5
158	3
159	28
160	9
161	125
162	36
163	480
164	85
165	253
166	85
167	13
168	6
169	2
170	2
171	17
172	4
173	11
174	10
175	20
176	44
177	165
178	40
179	75
180	17
181	9
182	2
185	2
186	2
187	11
188	3
189	82
190	15
191	18
192	17
193	37
194	9
195	20
196	5
197	2
201	3
202	10
203	6
204	33
205	26
206	8
207	905
208	144
209	15
210	2
220	13
221	50
222	360
223	66
224	8
