Mass Spectrum: 4-(3-Chloropropyl)styrene
Formula: C11H13Cl
CAS: 97344-49-5
Molecular weight: 180
m/z	intensity
39	20
51	20
65	20
91	68
102	20
115	121
116	40
117	999
118	128
180	330
182	108
