Mass Spectrum: 5-(O-Benzamido-N-bnezoylanilino)tropolone
Formula: C27H20N2O4
CAS: 97354-18-2
Molecular weight: 436
m/z	intensity
17	12
18	62
27	2
28	5
31	1
38	1
39	8
41	1
43	2
44	1
45	1
50	4
51	24
52	4
53	2
55	2
57	2
60	1
63	3
64	2
65	7
66	1
67	1
69	1
70	1
71	1
73	1
74	1
75	2
76	7
77	370
78	29
79	2
81	1
83	1
89	1
90	2
91	1
92	1
93	1
94	1
97	1
102	2
103	1
104	3
105	999
106	76
107	5
115	2
116	1
118	1
119	1
122	19
123	2
127	1
128	2
129	1
139	1
140	1
141	1
142	1
143	2
144	1
152	1
154	2
155	1
156	1
157	1
167	1
168	1
169	5
170	1
181	4
182	1
194	5
195	2
197	4
198	1
209	10
210	2
221	9
222	4
223	1
226	2
256	1
257	9
258	4
259	1
269	8
270	2
285	56
286	30
287	10
288	2
297	1
298	2
299	2
303	1
314	600
315	290
316	52
317	6
330	1
331	23
332	5
348	2
436	10
437	3
