Mass Spectrum: Benzonitrile, 4-[1-hydroxy-4-(methylthio)-3-butenyl]-, (Z)-
Formula: C12H13NOS
CAS: 97369-82-9
Molecular weight: 219
m/z	intensity
26	2
27	17
28	1
29	27
30	1
31	2
35	2
37	2
38	5
39	57
40	4
41	50
42	4
43	9
44	2
45	165
46	13
47	46
48	7
49	3
50	17
51	34
52	9
53	41
54	4
55	7
56	2
57	4
58	7
59	27
60	4
61	16
62	5
63	12
64	5
65	3
66	1
67	1
68	2
69	5
70	2
71	33
72	41
73	81
74	13
75	25
76	23
77	78
78	11
79	2
81	1
82	2
83	2
84	1
85	16
86	4
87	999
88	266
89	69
90	16
91	3
97	1
98	1
99	3
100	3
101	7
102	47
103	14
104	92
105	9
106	1
107	0
111	1
112	0
113	2
114	4
115	14
116	78
117	10
118	1
121	1
125	1
126	3
127	11
128	7
129	7
130	26
131	6
132	85
133	10
140	11
141	5
142	19
143	6
144	8
145	1
152	3
153	6
154	24
155	4
156	1
169	1
170	7
171	13
172	62
173	8
174	1
201	1
218	1
219	34
220	5
221	2
