Mass Spectrum: Benzenemethanol, .alpha.-methyl-.alpha.-(2-methyl-3-methylthio-2-propenyl)-
Formula: C13H18OS
CAS: 97369-97-6
Molecular weight: 222
m/z	intensity
26	23
28	20
29	13
35	3
38	2
39	31
40	3
41	29
42	4
43	999
44	19
45	36
46	4
47	12
49	3
50	10
51	41
52	9
53	40
54	43
55	47
56	14
57	11
58	3
59	33
60	2
61	34
62	3
63	9
64	2
65	14
67	23
68	2
69	7
71	18
72	2
73	5
74	4
75	6
76	6
77	93
78	22
79	8
81	2
83	2
85	18
86	12
87	126
88	10
89	10
91	30
92	6
95	4
99	3
101	46
102	703
103	54
104	28
105	59
106	6
107	2
111	2
113	2
114	5
115	18
116	4
117	5
118	2
120	7
121	570
122	43
123	3
127	7
128	12
129	10
130	2
131	3
135	12
141	11
142	14
143	4
145	2
153	2
155	4
156	6
157	29
158	6
159	2
169	1
173	2
175	4
185	2
189	3
190	6
204	5
222	1
