Mass Spectrum: 3-Methyl-4-(methylthio)-1-phenylbut-3-en-1-ol
Formula: C12H16OS
CAS: 97369-92-1
Molecular weight: 208
m/z	intensity
26	3
27	50
28	4
29	22
31	1
34	1
35	5
37	2
38	5
39	58
40	5
41	38
42	2
43	8
44	7
45	72
46	9
47	22
48	4
49	7
50	20
51	78
52	19
53	90
54	91
55	91
56	25
57	11
58	6
59	110
60	5
61	74
62	5
63	17
64	3
65	19
66	2
67	76
68	6
69	5
70	3
71	34
72	6
73	14
74	9
75	9
76	8
77	294
78	46
79	536
80	34
81	2
82	1
83	1
84	2
85	34
86	23
87	303
88	25
89	18
90	2
91	32
92	3
93	1
97	4
98	2
99	7
100	1
101	195
102	999
103	77
104	46
105	50
106	18
107	359
108	22
109	2
115	17
116	5
117	2
120	1
121	2
126	1
127	7
128	25
129	12
130	2
131	8
134	2
135	1
137	1
139	4
140	5
141	21
142	16
143	27
144	6
145	3
147	4
152	1
158	1
159	2
160	7
161	2
173	3
174	5
175	20
176	6
177	1
190	13
191	8
192	3
208	29
209	4
210	2
