Mass Spectrum: 4-Penten-2-ol, 5-(methylthio)-, (Z)-
Formula: C6H12OS
CAS: 97369-79-4
Molecular weight: 132
m/z	intensity
25	2
26	15
27	152
28	1
29	82
30	4
31	31
33	3
34	3
35	12
36	1
37	13
38	37
39	316
40	31
41	297
42	33
43	243
44	21
45	685
46	100
47	181
48	33
49	23
50	15
51	27
52	7
53	115
54	22
55	79
56	8
57	25
58	56
59	98
60	26
61	112
62	10
63	14
64	2
65	34
66	10
67	56
68	14
69	83
70	17
71	152
72	166
73	899
74	72
75	85
76	6
77	14
78	4
79	29
80	4
81	11
82	5
83	26
84	11
85	57
86	9
87	517
88	999
89	133
90	60
91	14
92	2
93	3
94	1
95	5
96	2
97	19
98	5
99	35
100	5
101	10
102	6
103	3
104	2
113	6
114	2
115	13
116	4
117	21
118	2
130	2
131	3
132	431
133	39
134	27
135	3
136	0
