Mass Spectrum: 2-Cyclohexen-1-ol, 1-[3-(methylthio)-2-propenyl]-, (Z)-
Formula: C10H16OS
CAS: 97369-89-6
Molecular weight: 184
m/z	intensity
27	50
29	18
31	9
39	116
40	18
41	234
42	13
43	65
45	123
46	12
47	36
50	12
51	44
52	20
53	70
54	9
55	155
56	7
57	11
58	12
59	27
61	29
62	8
63	27
65	70
66	20
67	133
68	25
69	49
71	36
72	38
73	99
74	20
75	16
77	141
78	48
79	246
80	25
81	20
82	9
83	22
85	35
87	138
88	472
89	48
90	32
91	379
92	62
93	34
94	14
95	23
96	10
97	999
98	78
99	9
102	8
103	44
104	24
105	35
107	13
109	12
110	12
111	13
115	89
116	35
117	312
118	221
119	210
120	23
121	12
123	37
125	9
134	11
135	17
136	14
137	14
138	8
147	7
149	20
151	88
152	12
166	450
167	63
168	27
184	15
185	3
186	2
187	0
