Mass Spectrum: 2-(4-Iodophenyl)-5-methoxytetrahydrofuran
Formula: C11H13IO2
CAS: 97370-22-4
Molecular weight: 304
m/z	intensity
25	4
26	31
28	6
29	61
30	2
31	9
33	3
38	6
39	54
40	7
41	130
42	66
43	71
44	9
45	53
50	41
51	50
52	9
53	10
54	8
55	58
56	25
57	137
58	102
59	19
60	26
61	9
62	11
63	34
64	8
65	26
66	3
67	19
68	13
69	82
70	18
71	139
72	999
73	65
74	24
75	20
76	60
77	83
78	34
79	11
80	3
81	36
82	12
83	27
84	12
85	20
86	9
87	10
88	5
89	41
90	37
91	75
92	7
93	10
94	3
95	16
96	9
97	20
98	9
99	6
100	29
101	11
102	20
103	26
104	19
105	16
106	4
107	5
109	9
110	4
111	11
112	4
113	5
114	6
115	167
116	103
117	202
118	48
119	8
121	8
122	3
123	7
124	3
125	5
127	12
128	35
129	15
130	2
131	14
132	3
133	4
134	4
135	7
136	3
137	8
139	2
141	5
142	2
144	9
145	28
146	68
147	10
149	104
150	8
161	3
170	3
173	2
177	146
178	18
184	3
203	24
204	44
205	4
217	96
218	6
223	4
228	20
229	54
230	12
231	41
232	3
243	9
244	14
245	4
260	3
272	42
273	115
274	13
303	16
304	149
305	16
306	3
