Mass Spectrum: 5-Carbethoxy-6-[piperidin-1-yl]methyl-thieno[3,2-b]pyrrole
Formula: C15H20N2O2S
CAS: 97375-51-4
Molecular weight: 292
m/z	intensity
41	291
42	271
43	59
44	103
45	158
46	11
47	20
49	6
50	16
51	5
52	35
53	44
54	59
55	177
56	153
57	43
58	83
59	13
62	7
63	97
64	28
65	70
66	13
67	35
68	30
69	92
70	46
71	11
72	156
73	11
74	8
75	20
76	20
77	29
78	47
79	11
80	25
81	29
82	135
83	39
84	999
85	66
86	37
88	15
89	8
90	107
91	57
92	36
93	14
94	18
95	28
96	37
97	30
98	35
102	28
103	16
104	19
105	16
106	12
107	68
108	62
109	80
110	23
111	10
112	5
115	6
117	6
119	2
120	8
121	20
122	46
123	55
124	17
129	2
130	9
131	28
132	5
133	33
134	469
135	165
136	235
137	31
138	13
145	2
147	5
148	17
149	48
150	32
151	9
157	2
160	10
161	10
162	670
163	155
164	107
165	16
173	6
174	13
175	41
176	23
177	35
178	18
179	10
180	36
185	2
188	10
189	21
190	39
191	17
193	30
195	5
203	57
204	15
207	25
208	94
209	33
210	8
217	171
218	29
219	93
220	14
221	24
223	7
235	42
236	19
245	172
246	17
247	35
249	332
250	50
251	19
263	511
264	74
265	28
291	2
292	238
293	54
294	17
