Mass Spectrum: 3-Buten-2-one, 3-methyl-4-(1,3,3-trimethyl-7-oxabicyclo[4.1.0]heptan-1-yl)-
Formula: C14H22O2
CAS: 97371-44-3
Molecular weight: 222
m/z	intensity
26	3
27	90
28	12
29	84
30	2
31	5
38	3
39	107
40	19
41	278
42	24
43	999
44	28
45	13
50	6
51	33
52	18
53	100
54	16
55	196
56	36
57	41
58	3
59	14
63	10
64	3
65	45
66	14
67	114
68	14
69	153
70	31
71	28
72	6
73	2
77	108
78	21
79	117
80	27
81	132
82	32
83	55
84	9
85	27
86	2
89	2
91	90
92	14
93	119
94	25
95	133
96	59
97	78
98	24
99	48
100	3
103	8
104	4
105	54
106	16
107	112
108	61
109	371
110	61
111	173
112	23
113	7
115	23
116	4
117	8
118	2
119	35
120	13
121	65
122	27
123	624
124	92
125	197
126	90
127	9
128	3
129	3
130	2
131	7
132	3
133	17
134	5
135	46
136	19
137	108
138	29
139	20
140	11
141	10
142	2
145	6
146	4
147	23
148	13
149	44
150	16
151	47
152	15
153	84
154	14
159	2
161	42
162	7
163	19
164	22
165	83
166	22
167	4
171	4
175	5
176	2
177	11
178	3
179	111
180	21
181	2
189	15
190	2
191	3
193	12
194	2
204	4
205	3
207	33
208	5
222	30
223	7
