Mass Spectrum: 2-Benzylthio-6-phenylimidazo[2,1-b][1,3,4]thiadiazole
Formula: C17H13N3S2
CAS: 97406-88-7
Molecular weight: 323
m/z	intensity
33	1
34	1
37	2
38	7
39	57
40	8
41	14
42	1
43	6
44	10
45	32
46	2
47	2
48	1
49	1
50	21
51	41
52	15
53	3
54	1
55	6
56	2
57	9
58	3
59	9
60	1
61	3
62	13
63	42
64	13
65	135
66	8
67	2
68	1
69	9
70	11
71	18
72	2
73	2
74	6
75	11
76	64
77	39
78	6
79	4
80	1
81	3
82	2
83	9
84	2
85	7
86	2
87	5
88	8
89	39
91	999
92	114
93	5
94	2
95	4
96	2
97	5
98	1
99	2
101	6
102	28
103	280
104	34
105	3
106	1
107	1
108	1
109	2
110	1
111	3
112	1
113	1
114	5
115	7
116	54
117	8
118	1
119	1
120	9
121	22
122	4
123	13
124	2
125	2
127	1
128	9
129	7
130	7
131	1
133	2
134	2
135	2
137	1
139	1
141	1
142	5
143	1
144	3
146	31
147	80
148	24
149	7
150	1
151	1
159	1
160	3
161	1
162	4
163	1
165	1
173	10
174	196
175	23
176	12
177	2
178	1
179	1
187	3
191	1
193	1
201	2
205	1
206	5
207	33
208	5
218	1
221	2
232	14
233	7
234	2
246	1
265	53
266	9
267	3
290	1
323	240
324	50
325	26
326	5
327	1
