Mass Spectrum: 20-Methyl-5-pregnene-3,20-diol 3-acetate
Formula: C24H38O3
CAS: 97414-59-0
Molecular weight: 374
m/z	intensity
41	120
43	567
45	42
49	0
51	2
53	28
55	94
57	20
59	999
60	25
61	9
65	11
67	94
68	9
69	40
71	41
72	1
77	39
78	11
79	96
80	2
81	138
82	12
83	15
85	15
86	0
91	112
92	25
93	93
94	44
95	73
96	6
97	7
98	0
99	1
103	8
105	124
106	41
107	90
108	34
109	36
110	1
111	4
113	2
115	12
116	7
117	41
118	18
119	64
120	61
121	58
122	14
123	51
124	5
125	2
127	6
128	11
129	24
130	13
131	54
132	18
133	75
134	36
135	154
136	17
137	8
138	0
139	1
141	9
142	8
143	42
144	18
145	103
146	44
147	68
148	116
149	60
150	9
151	3
152	1
153	2
154	0
155	7
156	2
157	29
158	36
159	53
160	38
161	33
162	28
163	13
164	1
165	2
167	3
168	0
169	8
170	2
171	27
172	11
173	32
174	17
175	22
176	5
177	2
179	1
181	1
182	0
183	8
184	1
185	28
186	8
187	10
188	50
189	13
190	2
191	2
193	11
194	1
195	1
196	0
197	9
198	3
199	22
200	7
201	7
202	6
203	2
205	0
206	1
207	1
209	2
211	14
212	6
213	24
214	26
215	8
216	0
224	0
225	7
226	3
227	11
228	8
229	3
231	1
232	1
237	1
238	0
239	9
241	102
242	18
243	2
251	3
253	27
254	11
255	15
256	71
257	35
258	6
259	0
260	0
267	1
271	1
272	3
279	4
281	27
282	6
283	1
294	13
295	3
296	34
297	37
298	7
299	16
300	3
310	1
312	27
314	516
315	119
316	16
317	0
331	0
341	2
357	1
359	1
374	4
