Mass Spectrum: 6,7-Diazabicyclo[3.2.2]non-6-ene, 2-methylene-
Formula: C8H12N2
CAS: 97423-85-3
Molecular weight: 136
m/z	intensity
37	7
38	26
39	444
40	68
41	441
42	23
43	9
44	4
45	3
47	4
49	17
50	52
51	137
52	90
53	142
54	106
55	33
56	4
62	7
63	30
64	6
65	159
66	74
67	198
68	29
69	5
70	2
71	9
74	4
75	9
76	4
77	357
78	162
79	999
80	609
81	58
82	3
83	5
84	11
85	4
86	6
89	11
91	255
92	29
93	733
94	58
95	4
103	5
105	16
106	5
107	48
108	192
109	17
