Mass Spectrum: 1,3,4-Thiadiazolidine-3,4-dicarboxylic acid, 2-spiro-2'-adamantyl-, dimethyl ester
Formula: C15H22N2O4S
CAS: 97462-31-2
Molecular weight: 326
m/z	intensity
33	57
34	19
35	6
36	0
37	2
39	377
40	124
41	833
42	502
43	192
44	239
45	209
46	64
47	76
48	8
49	10
50	12
51	70
52	61
53	258
54	134
55	319
56	157
57	120
58	151
59	999
60	68
61	43
62	11
63	21
64	21
65	179
66	110
67	379
68	134
69	60
70	68
71	107
72	33
73	28
74	60
75	45
76	95
77	382
78	149
79	753
80	181
81	169
82	56
83	23
84	47
85	160
86	34
87	43
88	510
89	38
90	75
91	650
92	175
93	319
94	86
95	48
96	20
97	47
98	24
99	25
100	19
101	31
102	89
103	108
104	65
105	156
106	140
107	90
108	33
109	24
110	18
111	35
112	26
113	14
114	16
115	48
116	32
117	112
118	52
119	91
120	102
121	141
122	32
123	35
124	76
125	49
126	17
127	22
128	21
129	97
130	33
131	113
132	162
133	170
134	60
135	22
136	12
137	23
138	31
139	23
140	14
141	11
142	3
143	3
144	9
145	20
146	64
147	54
148	194
149	456
150	64
151	32
152	35
153	23
154	8
155	1
157	3
158	10
160	178
161	101
162	86
163	54
164	108
165	147
166	373
167	63
168	22
169	3
170	3
171	6
172	3
173	12
174	17
175	17
176	25
177	15
178	54
179	42
180	87
181	19
182	6
183	7
184	3
185	0
187	0
189	4
190	8
191	7
192	36
193	8
194	13
195	3
196	9
197	4
198	3
201	1
203	4
205	81
206	237
207	196
208	405
209	50
210	5
211	0
212	2
217	0
218	0
219	3
220	5
221	26
222	6
223	3
224	4
225	0
233	6
235	94
236	18
237	12
239	266
240	36
241	12
242	0
249	26
250	4
251	9
252	4
261	1
264	0
265	1
267	62
268	8
269	2
280	11
281	8
282	0
291	0
293	73
294	10
295	8
296	0
321	3
323	15
326	599
327	91
328	31
329	3
