Mass Spectrum: (7E,9E)-Dodecadienal
Formula: C12H20O
CAS: 97475-10-0
Molecular weight: 180
m/z	intensity
41	140
53	70
54	80
55	370
66	60
67	910
68	270
69	110
70	100
77	100
79	300
80	140
81	510
82	500
83	100
84	80
85	50
91	120
93	160
94	100
95	999
96	170
97	100
98	600
105	60
107	100
108	60
109	170
110	40
121	50
123	70
133	90
137	90
151	70
180	580
181	90
