Mass Spectrum: (6Z,8Z)-Dodecadienyl acetate
Formula: C14H24O2
CAS: 97474-97-0
Molecular weight: 224
m/z	intensity
54	260
67	999
68	180
79	750
80	400
81	600
82	590
95	310
96	350
109	120
110	30
123	50
164	450
224	350
225	53
226	4
