Mass Spectrum: (6E,8E)-Dodecadienal
Formula: C12H20O
CAS: 97475-09-7
Molecular weight: 180
m/z	intensity
41	130
43	50
54	150
55	130
66	140
67	999
68	140
69	80
70	40
71	70
77	80
78	50
79	320
80	180
81	400
82	160
83	160
84	400
91	220
92	50
93	230
94	140
95	230
96	140
98	70
107	80
109	230
110	50
112	70
123	110
136	20
137	300
138	40
151	40
180	510
181	80
