Mass Spectrum: 3,4,5-Trimethoxy-N,N-dimethylphenylethanolamine
Formula: C13H21NO4
CAS: 97498-06-1
Molecular weight: 255
m/z	intensity
41	9
42	75
43	31
44	41
45	9
50	4
51	11
52	7
53	14
55	8
56	7
57	44
58	999
59	227
60	4
63	5
64	2
65	17
66	10
67	11
68	9
69	3
72	4
77	15
78	7
79	8
80	3
81	10
82	4
83	4
91	4
92	4
93	13
94	5
95	13
96	4
105	4
106	4
107	6
108	7
109	12
110	9
111	8
119	11
121	7
122	3
123	7
124	3
125	12
134	2
135	5
136	8
137	4
138	30
139	11
148	2
151	9
152	5
153	7
154	19
164	6
167	4
168	2
169	31
178	5
179	8
181	33
182	8
194	8
195	7
196	40
197	15
210	4
222	65
223	9
224	6
237	41
238	9
255	26
256	3
