Mass Spectrum: 4,7,7-Trimethyl-5-(tetrahydropyran-2-yloxy)-bicyclo[2.2.1]heptan-2-one
Formula: C15H24O3
CAS: 97500-29-3
Molecular weight: 252
m/z	intensity
27	20
28	5
29	49
30	1
31	5
39	25
40	4
41	101
42	9
43	111
44	5
45	6
51	3
52	1
53	15
54	4
55	65
56	9
57	80
58	4
59	2
65	5
66	2
67	96
68	8
69	27
70	25
71	20
72	2
73	1
77	9
78	1
79	14
80	3
81	35
82	6
83	22
84	24
85	999
86	60
87	3
91	10
92	1
93	18
94	4
95	20
96	3
97	6
98	3
99	8
100	1
101	2
103	1
105	3
107	26
108	17
109	79
110	9
111	11
112	3
113	2
121	3
122	3
123	21
124	70
125	22
126	2
133	5
135	4
139	12
140	1
141	2
149	2
150	14
151	30
152	3
153	14
154	1
155	1
167	3
168	146
169	20
170	2
234	1
252	12
253	5
