Mass Spectrum: 1,3-Bis-t-butylperoxy-phthalan
Formula: C16H24O5
CAS: 97526-35-7
Molecular weight: 296
m/z	intensity
41	106
42	5
43	302
44	7
45	52
46	0
47	0
49	5
50	16
51	38
52	7
53	5
54	0
55	32
56	6
57	163
58	17
59	25
60	0
62	0
63	4
64	1
65	16
66	2
67	0
68	0
69	1
71	0
73	999
74	56
75	7
76	17
77	74
78	17
79	5
81	0
83	0
84	3
86	2
89	5
90	5
91	5
92	0
93	5
94	0
95	0
98	0
104	5
105	123
106	20
107	1
118	52
119	5
121	8
122	2
123	0
133	48
134	18
135	36
136	2
149	7
150	0
151	0
190	0
193	0
207	79
208	9
209	0
