Mass Spectrum: Dispiro[1,3-dioxolane-2,1'-cyclobutadicyclopentene-4',2''-[1,3]dioxolane], octahydro-
Formula: C14H20O4
CAS: 97594-13-3
Molecular weight: 252
m/z	intensity
26	30
27	224
28	57
29	60
30	4
31	8
38	12
39	252
40	8
41	155
42	251
43	184
44	14
45	93
46	8
47	4
50	18
51	70
52	57
53	207
54	103
55	375
56	80
57	21
58	5
59	8
60	9
61	2
62	4
63	22
64	10
65	106
66	163
67	187
68	90
69	22
70	5
71	5
73	74
74	5
75	5
76	13
77	167
78	52
79	264
80	58
81	130
82	106
83	119
84	7
85	7
86	618
87	238
88	11
89	23
90	5
91	102
92	21
93	68
94	53
95	29
96	138
97	23
98	23
99	999
100	221
101	48
102	4
103	12
104	6
105	25
106	9
107	44
108	11
109	25
110	17
111	7
112	110
113	24
114	4
115	7
117	10
118	5
119	13
120	4
121	18
122	15
123	14
124	13
125	285
126	199
127	346
128	26
129	5
131	4
133	6
134	3
135	12
136	18
137	37
138	70
139	17
140	3
147	5
149	8
150	11
151	117
152	28
153	80
154	8
157	40
163	9
164	12
165	21
166	138
167	25
173	4
174	4
177	2
179	11
180	8
181	3
183	6
191	7
192	5
193	14
195	2
197	21
198	2
204	4
205	3
207	135
208	43
209	743
210	96
211	29
212	2
221	19
222	8
223	18
224	8
252	99
253	15
