Mass Spectrum: 6,1 1-Benzo[b]phenazine- quinone
Formula: C16H8N2O2
CAS: 97594-66-6
Molecular weight: 260
m/z	intensity
37	23
38	42
39	90
40	33
41	9
42	4
43	7
44	85
45	2
49	16
50	634
51	182
52	59
53	23
54	3
55	5
57	3
58	3
61	19
62	39
63	46
64	42
65	6
66	6
69	2
70	2
73	22
74	180
75	307
76	999
77	146
78	28
79	1
85	3
86	8
87	17
88	31
89	15
90	7
91	5
97	1
98	12
99	28
100	39
101	78
102	148
103	29
104	970
105	128
106	9
111	2
112	2
113	2
114	8
115	1
116	9
123	2
124	2
125	2
126	11
127	7
128	28
129	15
130	40
132	122
133	10
140	1
149	5
150	11
151	10
152	4
153	5
154	3
158	24
175	4
176	18
177	51
178	16
179	1
202	3
203	42
204	250
205	43
206	3
231	5
232	222
233	38
234	1
259	5
260	517
261	104
262	7
