Mass Spectrum: Pentafluorobenzoic acid, butyl ester
Formula: C11H9F5O2
CAS: 97649-90-6
Molecular weight: 268
m/z	intensity
26	59
27	415
28	116
29	421
30	22
31	88
36	5
37	11
38	21
39	209
40	39
41	513
42	45
43	93
44	19
45	21
50	16
51	18
53	15
54	7
55	129
56	999
57	107
58	6
67	5
68	5
69	16
71	6
73	19
74	18
75	5
79	63
80	8
81	4
86	21
91	4
93	89
94	4
97	7
98	91
99	38
100	4
105	8
110	13
116	7
117	349
118	25
119	7
124	4
129	15
136	4
137	12
143	9
148	88
149	12
150	5
164	5
166	7
167	326
168	51
169	4
176	11
177	4
192	4
193	4
194	16
195	681
196	52
197	4
212	29
213	65
214	7
239	4
268	5
