Mass Spectrum: ((1R,4aR,4bS,10aR)-7-Isopropyl-1,4a-dimethyl-1,2,3,4,4a,4b,5,9,10,10a-decahydrophenanthren-1-yl)methanol
Formula: C20H32O
CAS: 97640-46-5
Molecular weight: 288
m/z	intensity
27	37
29	57
30	2
31	55
39	43
40	9
41	253
42	15
43	356
44	7
45	11
51	12
52	5
53	62
54	9
55	216
56	20
57	50
58	5
59	8
63	6
64	3
65	57
66	10
67	147
68	21
69	147
70	11
71	32
72	3
76	4
77	113
78	45
79	168
80	22
81	340
82	31
83	39
84	9
85	12
86	4
89	8
91	999
92	827
93	265
94	33
95	466
96	54
97	65
98	5
99	7
102	6
103	49
104	48
105	417
106	54
107	158
108	31
109	207
110	24
111	327
112	30
113	6
115	109
116	36
117	249
118	60
119	172
120	37
121	66
122	35
123	229
124	62
125	14
127	19
128	71
129	85
130	24
131	216
132	44
133	917
134	459
135	357
136	539
137	129
138	12
139	5
141	44
142	28
143	62
144	17
145	65
146	238
147	148
148	201
149	40
150	7
151	5
152	16
153	62
154	12
155	21
156	10
157	30
158	9
159	46
160	13
161	44
162	10
165	27
166	5
167	8
169	7
171	22
172	7
173	41
174	11
185	12
186	8
187	15
188	14
192	4
199	13
200	3
201	11
202	3
212	3
214	5
215	22
216	5
227	5
245	5
246	3
256	4
257	95
258	21
259	9
270	3
285	5
288	280
289	64
290	5
