Mass Spectrum: l-Proline, 4-hydroxy-2-(phenylmethyl)-, trans-
Formula: C12H15NO3
CAS: 97651-99-5
Molecular weight: 221
m/z	intensity
25	2
27	19
28	44
29	15
30	56
31	14
38	4
39	53
40	8
41	69
42	75
43	32
44	19
45	12
50	9
51	31
52	10
53	9
54	31
55	12
56	111
57	12
58	4
59	8
60	7
62	4
63	22
64	7
65	69
66	13
67	7
68	44
69	4
70	5
71	2
72	3
73	2
74	4
75	4
77	28
78	14
79	11
80	19
81	7
82	4
84	85
85	6
86	7
87	4
88	14
89	17
90	10
91	387
92	83
93	6
94	6
99	4
100	12
101	2
102	8
103	14
104	7
105	5
106	4
107	2
111	2
112	234
113	16
114	3
115	41
116	19
117	24
118	7
119	3
127	3
128	7
129	9
130	999
131	78
132	24
133	28
134	3
143	4
144	3
145	2
146	4
147	2
156	10
157	8
158	16
159	3
174	4
175	4
176	229
177	33
178	3
222	3
