Mass Spectrum: 1H,3H-Pyrrolo[1,2-c]oxazol-1-one, 3-(1,1-dimethylethyl)tetrahydro-6-(1-oxopropoxy)-7a-methyl-, [3R-(3.alpha.,6.alpha.,7a.alpha.)]-
Formula: C14H23NO4
CAS: 97652-03-4
Molecular weight: 269
m/z	intensity
26	3
27	27
28	12
29	71
30	23
31	1
38	1
39	27
40	6
41	91
42	47
43	45
44	19
45	4
50	1
51	2
52	2
53	12
54	11
55	71
56	33
57	52
58	3
59	0
60	1
63	0
65	4
66	3
67	24
68	10
69	14
70	25
71	11
72	1
73	3
74	3
75	0
77	1
78	2
79	2
80	20
81	13
82	210
83	15
84	3
85	2
86	1
88	0
91	1
92	1
93	4
94	67
95	25
96	6
97	1
98	12
99	4
100	1
105	1
106	1
107	1
108	2
109	3
110	999
111	80
112	5
113	6
115	0
119	0
120	2
121	1
122	1
123	1
124	1
125	1
126	1
127	0
128	1
134	1
135	0
136	23
137	3
138	5
139	1
140	0
141	0
142	1
150	1
151	22
152	18
153	1
154	0
155	0
156	1
166	0
168	1
170	18
171	1
175	0
180	1
184	26
185	2
195	12
196	3
197	0
198	36
199	3
200	0
210	1
211	0
212	69
213	7
214	1
219	0
224	0
225	0
226	20
227	2
228	0
240	1
241	0
254	1
268	0
270	0
