Mass Spectrum: 6-(2,5-Dihydroxy-3-methylphenyl)-1-[1,2-dimethyl-2-(4-methyl-1-oxo-3-pentenyl)cyclopentyl]-4-methyl-4-hexen-2-one
Formula: C27H38O4
CAS: 97743-94-7
Molecular weight: 426
m/z	intensity
41	280
43	140
69	560
81	180
95	999
97	220
107	80
109	120
122	90
137	280
167	280
175	220
177	840
191	30
235	60
329	170
357	60
408	40
426	300
