Mass Spectrum: 3(3H)-Xanthenone, 6-benzyloxy-9-[2-(benzyloxycarbonyl)phenyl]-
Formula: C34H24O5
CAS: 97744-44-0
Molecular weight: 512
m/z	intensity
41	12
43	14
45	2
46	2
51	2
55	5
57	7
63	8
65	62
69	7
77	2
79	2
89	11
91	999
92	76
189	4
200	11
201	6
202	14
229	2
258	4
377	22
378	3
421	2
436	35
437	9
512	90
513	34
514	3
