Mass Spectrum: 2-Hydroxymethyl-5-(1-hydroxy-1-isopropyl)-2-cyclohexen-1-one
Formula: C10H16O3
CAS: 97762-06-6
Molecular weight: 184
m/z	intensity
51	30
52	20
53	70
54	10
55	90
57	20
58	10
59	999
60	40
65	30
66	40
67	30
68	20
69	70
70	40
71	20
77	100
78	20
79	300
80	370
81	50
82	10
83	40
91	20
93	30
95	100
96	10
97	70
98	20
105	40
107	30
108	320
109	50
110	10
122	40
123	120
124	20
126	30
151	90
152	10
166	40
