Mass Spectrum: cis-4-Hydroxy-2-methyl-5-(1-hydroxy-1-isopropyl)-2-cyclohexen-1-one
Formula: C10H16O3
CAS: 97762-02-2
Molecular weight: 184
m/z	intensity
51	50
52	40
53	70
54	30
55	110
56	20
57	30
58	50
59	720
60	30
65	30
66	10
67	60
68	50
69	260
70	80
71	40
77	70
78	40
79	350
80	510
81	70
82	20
83	40
90	40
91	30
95	30
97	50
98	50
106	20
107	190
108	999
109	290
110	40
111	70
123	20
124	10
125	20
126	30
151	30
166	20
