Mass Spectrum: 5-Hydroxy-5-(1-hydroxy-1-isopropyl)-2-methyl-2-cyclohexen-1-one
Formula: C10H16O3
CAS: 97762-08-8
Molecular weight: 184
m/z	intensity
51	50
52	40
53	150
54	160
55	150
56	20
57	30
58	50
59	999
60	30
65	20
67	50
69	100
70	20
71	20
77	90
79	190
80	150
81	100
82	170
83	170
84	50
93	30
95	30
97	170
98	50
107	50
108	120
109	210
110	30
111	320
123	20
124	20
125	160
126	350
127	10
148	2
151	10
166	2
