Mass Spectrum: 1-Methyl-4-piperidyl-2,2-diphenylacetat
Formula: C20H23NO2
CAS: 97762-23-7
Molecular weight: 309
m/z	intensity
12	0
14	0
15	17
16	1
17	10
18	47
26	2
27	24
28	22
29	64
30	23
31	1
32	2
37	0
38	1
39	35
40	3
41	29
42	171
43	81
44	124
45	4
50	4
51	13
52	3
53	14
54	13
55	223
56	27
57	52
58	17
59	1
60	0
61	0
62	3
63	13
64	2
65	9
66	1
67	9
68	24
69	19
70	117
71	26
72	7
73	1
74	3
75	3
76	4
77	9
78	2
79	4
80	6
81	12
82	147
83	18
84	3
85	1
86	7
87	3
88	2
89	13
90	4
91	4
92	0
94	12
96	999
97	372
98	448
99	33
100	3
101	1
102	4
103	1
104	0
105	1
106	0
107	0
110	0
111	0
112	4
113	5
114	85
115	33
116	3
117	0
118	1
125	0
126	3
127	3
128	10
129	1
131	0
133	0
135	0
137	1
138	1
139	13
140	2
141	4
142	1
143	0
146	0
149	0
150	1
151	7
152	73
153	10
154	0
162	1
163	9
164	16
165	149
166	52
167	133
168	21
169	1
171	1
174	7
175	1
178	0
179	0
180	0
181	0
183	0
194	10
195	1
196	0
211	0
212	0
213	0
225	0
231	0
240	1
241	0
266	0
305	0
306	0
307	0
308	1
309	66
310	15
311	2
312	0
