Mass Spectrum: Geranic acid TMS
Formula: C13H24O2Si
CAS: 97779-61-8
Molecular weight: 240
m/z	intensity
27	11
28	3
29	9
38	2
39	61
40	10
41	290
42	16
45	56
46	4
47	35
48	2
49	1
50	2
51	10
52	5
53	58
54	41
58	5
60	6
61	26
62	2
63	3
64	1
65	16
66	8
67	66
68	20
69	999
70	61
75	310
76	22
77	35
78	5
79	22
80	10
81	25
82	543
87	2
96	4
97	33
100	3
106	6
107	101
108	69
112	100
113	106
114	17
122	320
123	312
124	28
135	33
137	3
138	2
139	5
140	1
150	53
151	12
152	2
154	2
156	308
157	297
158	47
159	17
160	4
167	62
170	8
172	222
173	32
174	10
175	1
179	4
180	1
183	12
185	27
186	5
196	2
197	67
198	13
199	10
200	1
207	2
212	12
213	2
214	1
225	337
226	61
227	18
228	2
240	52
241	10
242	3
