Mass Spectrum: 1-Phenyl-2-(2-trimethylsilylcyclopropen-1-yl)ethanol, 2TMS derivative
Formula: C17H28OSi2
CAS: 97778-19-3
Molecular weight: 304
m/z	intensity
26	0
27	2
28	10
29	6
31	3
39	4
40	0
41	1
42	1
43	31
44	15
45	99
46	6
47	11
50	2
51	6
52	2
53	3
54	0
55	6
56	1
57	4
58	8
59	21
60	2
61	5
62	0
63	3
64	0
65	4
66	1
67	3
68	1
69	4
70	2
71	2
72	9
73	999
74	82
75	83
76	6
77	18
78	6
79	4
81	4
82	2
83	11
84	2
85	3
86	0
87	0
89	2
90	1
91	10
92	1
93	1
95	5
96	3
97	3
98	0
99	1
101	1
102	2
103	7
104	17
105	18
106	2
107	4
108	0
109	4
110	2
111	2
113	1
114	0
115	16
116	2
117	4
118	1
119	2
121	3
122	1
123	0
125	1
126	0
127	1
128	2
129	3
130	0
131	7
132	1
133	16
134	2
135	10
136	1
137	1
139	2
140	1
141	46
142	52
143	8
144	1
145	5
146	1
147	159
148	26
149	19
150	1
151	0
153	1
154	1
155	4
156	1
157	2
158	0
159	2
161	1
163	8
164	1
165	0
167	0
169	1
171	2
172	1
173	7
174	1
175	0
177	3
178	1
179	447
180	68
181	21
182	2
183	5
184	0
185	2
186	1
187	0
188	2
189	0
191	1
192	1
193	1
195	0
197	0
199	6
200	1
201	7
202	1
203	0
205	1
206	0
209	0
213	3
214	14
215	11
216	5
217	9
218	1
219	0
221	1
229	2
230	10
231	44
232	10
233	2
289	2
303	6
304	18
305	5
306	1
