Mass Spectrum: Silane, trimethyl(methylenecyclopropyl)-
Formula: C7H14Si
CAS: 97778-10-4
Molecular weight: 126
m/z	intensity
26	16
27	72
28	8
29	73
30	25
31	61
33	2
37	2
38	4
39	30
40	4
41	37
42	32
43	241
44	81
45	281
46	18
47	9
49	1
50	11
51	14
52	5
53	54
54	14
55	68
56	14
57	30
58	99
59	338
60	26
61	11
62	1
63	1
64	0
65	6
66	17
67	31
68	10
69	40
70	26
71	48
72	105
73	999
74	84
75	47
76	2
77	5
78	1
79	5
80	1
81	11
82	2
83	187
84	65
85	304
86	82
87	15
88	1
89	1
91	0
93	3
94	1
95	24
96	4
97	12
98	20
99	3
100	3
101	5
103	0
107	0
109	33
110	14
111	705
112	84
113	31
114	1
115	3
123	0
125	3
126	4
127	1
