Mass Spectrum: Butyl-tert-butyl-isopropoxyborane
Formula: C11H25BO
CAS: 97782-82-6
Molecular weight: 184
m/z	intensity
39	45
41	209
42	151
43	999
45	581
55	46
56	93
57	323
59	232
71	10
84	93
85	497
86	11
127	11
142	22
