Mass Spectrum: 2,4-Bis((2,2-diethoxyethyl)amino)-5-nitropyrimidine
Formula: C16H29N5O6
CAS: 97785-92-7
Molecular weight: 387
m/z	intensity
13	1
14	4
15	16
16	1
17	9
18	1
25	2
26	20
27	67
28	69
29	85
30	30
31	221
32	33
33	14
38	3
39	5
40	11
41	13
42	19
43	43
44	38
45	113
46	46
47	223
48	2
49	1
51	4
52	17
53	15
54	10
55	22
56	9
57	7
58	11
59	9
60	2
61	322
62	7
63	2
64	3
65	9
66	11
67	12
68	14
69	9
70	6
71	4
72	10
73	3
74	2
75	378
76	12
77	5
78	5
79	19
80	13
81	14
82	9
83	6
84	7
85	7
86	3
87	3
88	1
89	535
90	25
91	6
92	10
93	23
94	22
95	14
96	6
97	4
98	3
99	3
100	3
102	2
103	999
104	58
105	10
106	15
107	28
108	16
109	12
110	9
111	5
112	2
113	3
116	2
117	2
118	9
119	24
120	23
121	17
122	15
123	8
124	4
125	2
127	1
130	2
131	3
132	7
133	9
134	14
135	24
136	14
137	9
138	5
139	2
140	1
141	1
144	1
145	13
146	11
147	24
148	25
149	11
150	8
151	7
152	5
153	3
154	1
155	1
157	4
158	11
159	20
160	23
161	9
162	10
163	9
164	20
165	12
166	6
167	1
168	1
169	2
171	2
172	5
173	13
174	17
175	11
176	31
177	17
178	7
179	5
180	13
181	4
182	2
183	1
187	3
188	10
189	6
190	6
191	7
192	23
193	8
194	7
195	3
196	1
202	1
203	12
204	31
205	22
206	22
207	5
208	7
209	3
210	9
211	1
215	1
216	2
217	4
218	2
219	6
220	19
221	9
222	29
223	5
224	7
225	1
226	1
233	2
234	9
235	8
236	22
237	17
238	27
239	6
240	2
247	1
249	27
250	163
251	139
252	20
253	17
254	5
255	1
264	1
265	1
266	7
267	8
268	9
269	1
279	1
280	1
281	3
282	40
283	6
284	1
294	1
295	10
296	86
297	13
298	4
299	1
312	3
313	1
314	6
315	1
326	1
327	6
328	21
329	3
330	1
341	9
342	19
343	4
344	1
357	1
358	1
359	1
373	4
374	1
387	2
