Mass Spectrum: Phenyl-tert-butyl-isopropoxyborane
Formula: C13H21BO
CAS: 97782-88-2
Molecular weight: 204
m/z	intensity
39	45
41	161
43	194
45	524
51	11
52	11
53	22
57	123
59	133
77	33
78	34
79	10
103	45
104	270
105	999
106	33
146	22
147	101
148	11
162	10
