Mass Spectrum: 1,1-Dimethyl-2-[2-methyl-1-(methoxycarbonyl)prop-2-yl]hydrazine
Formula: C8H18N2O2
CAS: 97812-29-8
Molecular weight: 174
m/z	intensity
28	41
29	21
42	72
43	71
44	152
45	172
46	23
55	53
56	32
57	23
58	123
59	999
60	811
61	82
62	12
73	92
74	14
83	21
84	22
85	29
86	84
87	19
101	231
102	24
143	39
144	21
159	292
160	32
161	12
