Mass Spectrum: 1,1-Dimethyl-2-[2-(methoxycarbonyl)prop-2-yl]hydrazine
Formula: C7H16N2O2
CAS: 97812-30-1
Molecular weight: 160
m/z	intensity
27	12
28	22
29	19
30	20
31	18
41	17
42	21
43	22
44	83
45	25
46	19
56	15
57	23
58	17
59	999
60	63
61	9
69	12
70	22
71	25
72	28
73	12
83	23
84	16
85	24
86	15
87	12
98	22
99	17
100	21
101	143
102	23
160	154
161	22
162	5
