Mass Spectrum: 1,2-Diazabicyclo[2.2.2]octene-3-one, 2-chloro-
Formula: C6H9ClN2O
CAS: 97812-34-5
Molecular weight: 160
m/z	intensity
27	91
28	123
29	173
30	42
36	142
38	47
39	182
40	43
41	821
42	383
43	102
44	62
45	12
52	22
53	92
54	221
55	999
56	123
57	32
65	12
66	23
67	65
68	102
69	756
70	143
71	23
80	24
81	25
82	42
83	346
84	33
97	643
98	112
99	21
102	21
103	62
104	142
105	21
106	47
117	42
119	14
125	82
126	12
132	233
133	21
134	78
135	8
160	153
161	31
162	51
163	10
