Mass Spectrum: 3-Methyl-3-phenylazobutanoic acid tert.-butyl ester
Formula: C15H22N2O2
CAS: 97812-41-4
Molecular weight: 262
m/z	intensity
39	65
40	12
41	110
42	65
43	132
44	23
56	74
57	999
58	74
59	273
60	24
77	264
78	75
101	445
102	45
105	256
106	65
147	76
157	213
162	42
189	253
190	43
262	25
263	5
