Mass Spectrum: N-(2-Methoxyethyl)alanine
Formula: C6H13NO3
CAS: 97884-64-5
Molecular weight: 147
m/z	intensity
42	125
43	171
44	213
45	999
56	171
58	197
59	237
70	72
73	105
74	250
75	112
80	92
82	105
102	368
115	224
147	53
