Mass Spectrum: Pregna-5,16-dien-20-one, 3-(acetyloxy)-, (3.beta.)-
Formula: C23H32O3
CAS: 979-02-2
Molecular weight: 356
m/z	intensity
41	74
43	999
45	25
47	7
48	1
49	27
51	14
52	1
53	34
55	69
56	1
57	10
59	1
60	1
61	4
63	2
65	19
67	51
68	3
69	17
71	9
73	1
77	56
78	9
79	88
80	4
81	73
83	7
84	22
86	18
87	0
88	2
89	2
91	128
92	10
93	75
94	13
95	30
96	1
97	9
98	1
99	3
100	1
103	12
104	3
105	115
106	5
107	110
108	7
109	24
110	1
111	8
112	2
113	4
115	21
116	13
117	45
119	58
120	20
121	104
122	4
123	25
124	8
125	4
126	1
127	6
128	19
129	27
130	13
131	57
132	3
133	69
135	68
136	4
137	78
138	6
139	2
141	30
142	10
143	47
144	4
145	100
146	15
147	45
148	3
149	16
150	6
151	6
152	4
153	5
154	2
155	13
157	41
158	12
159	60
160	24
161	47
162	2
163	6
165	6
166	1
167	7
168	2
169	12
171	26
172	7
173	23
174	7
175	42
176	6
177	5
178	3
179	4
180	0
181	7
182	0
183	13
184	2
185	18
186	27
187	16
188	34
189	11
190	3
191	3
192	1
193	4
194	2
195	7
196	2
197	12
198	7
199	11
200	7
201	6
202	3
203	6
204	1
205	3
207	5
208	1
209	5
210	1
211	12
212	5
213	7
214	3
215	4
216	2
217	1
218	1
219	1
221	3
223	6
224	0
225	15
226	3
227	3
228	0
229	2
233	1
235	3
236	1
237	6
238	1
239	9
240	2
241	3
242	3
243	1
247	0
249	3
250	0
251	9
252	3
253	30
254	4
255	2
256	0
257	1
258	1
261	1
263	8
264	1
265	1
266	0
267	9
268	3
269	8
270	3
271	1
273	0
275	0
277	1
278	2
279	7
281	64
282	13
283	5
284	2
285	2
286	2
293	1
294	4
295	8
296	356
297	78
298	11
300	1
309	1
310	6
311	4
312	49
313	13
314	3
324	0
326	0
327	0
328	0
329	0
340	0
341	1
355	0
356	5
357	1
