Mass Spectrum: Propane, 2-[2-[2-chloroethyl)thio]ethoxy]-
Formula: C7H15ClOS
CAS: 97915-99-6
Molecular weight: 182
m/z	intensity
39	40
40	20
41	206
42	33
43	999
44	37
45	89
46	41
47	33
51	15
55	64
56	77
57	26
58	75
59	260
60	123
61	151
63	76
65	36
71	19
73	602
74	41
81	16
82	11
86	240
87	82
88	101
89	95
91	27
95	15
96	25
100	73
103	27
104	11
105	17
109	327
110	74
111	138
112	22
118	238
119	25
121	16
123	217
124	20
125	86
146	219
147	39
148	15
