Mass Spectrum: Platinum, [(1,2-.eta.)-1,3-butadiene][1,2-ethanediylbis[dicyclohexylphosphine]-P,P']-
Formula: C30H54P2Pt
CAS: 97913-43-4
Molecular weight: 671
m/z	intensity
24	176
26	169
27	501
28	145
29	166
30	4
31	14
36	10
37	46
38	43
39	584
40	42
41	803
42	39
43	62
44	7
45	7
48	5
49	37
50	122
51	120
52	60
53	326
54	481
55	999
56	62
57	6
59	9
61	5
62	2
63	13
65	19
66	17
67	127
68	11
69	9
71	3
73	5
74	4
75	8
76	6
77	32
78	29
79	130
80	32
81	181
82	56
83	309
84	18
85	2
87	3
91	9
93	6
95	4
97	3
99	3
103	2
104	3
105	12
106	2
107	8
108	5
109	3
113	6
114	4
115	7
116	5
117	4
124	3
125	5
129	4
131	3
133	6
141	4
143	3
144	7
145	5
146	3
155	4
157	2
158	3
159	6
160	5
175	3
197	3
205	2
206	4
207	7
213	2
223	3
225	7
226	8
227	5
228	6
229	10
230	8
231	5
233	2
239	3
240	2
241	23
242	5
243	4
245	2
251	5
252	6
253	9
255	12
256	25
257	74
259	33
261	20
263	11
264	6
265	15
266	15
267	4
269	9
271	5
272	5
273	9
274	6
275	4
276	4
277	6
278	7
279	8
280	5
281	7
283	24
285	79
286	88
287	193
288	180
289	173
290	79
291	57
292	11
295	5
296	8
298	11
299	18
301	26
303	58
304	48
305	66
306	81
307	164
308	140
309	59
310	18
311	11
312	12
313	13
314	11
315	10
316	3
317	4
318	4
319	3
321	5
322	6
323	8
324	3
325	6
326	5
327	6
328	5
329	8
330	4
331	10
332	11
333	30
334	39
335	64
336	83
337	55
338	38
339	41
340	27
341	15
342	10
343	9
344	6
345	5
346	3
348	3
349	3
350	3
351	2
352	3
355	4
356	4
358	4
359	8
360	9
361	18
362	23
363	44
364	55
365	93
366	136
367	217
368	202
369	121
370	52
371	58
372	17
373	4
374	2
375	3
376	4
377	8
379	15
380	16
381	23
382	21
383	20
384	16
385	12
386	10
387	10
388	8
389	14
390	7
391	7
392	5
393	9
394	6
395	4
396	2
397	3
401	2
402	2
403	2
405	2
406	3
407	3
408	3
409	3
410	5
411	4
412	7
413	10
414	10
415	8
416	8
417	8
418	10
419	11
420	9
421	7
422	13
423	11
424	11
425	6
426	4
427	4
428	3
433	3
435	4
436	5
437	5
438	7
439	9
440	6
441	10
442	11
443	32
444	34
445	87
446	97
447	188
448	175
449	299
450	242
451	234
452	76
453	43
454	18
455	5
456	3
457	8
458	13
459	23
460	30
461	47
462	38
463	42
464	28
465	22
466	13
468	6
469	4
470	2
471	4
472	4
473	4
474	5
475	4
476	6
477	4
478	3
479	2
482	3
483	3
484	2
485	3
489	2
490	3
494	2
497	2
498	3
499	3
500	3
501	5
502	5
503	4
504	7
505	6
506	14
507	17
508	16
509	6
510	4
515	4
518	11
519	12
520	7
521	14
522	12
523	24
524	28
525	40
526	50
527	74
528	78
529	136
530	140
531	470
532	577
533	541
534	246
535	112
536	54
537	13
562	4
563	3
565	4
567	10
571	5
572	2
578	2
581	2
583	2
584	3
585	4
588	57
589	74
590	58
591	18
592	16
593	4
595	2
601	3
603	3
605	6
606	9
607	22
608	17
609	37
610	54
611	69
612	174
613	198
614	829
615	948
616	836
617	311
618	267
619	73
620	26
621	5
667	2
668	4
670	129
671	173
672	143
673	38
674	34
