Mass Spectrum: 5-Methoxycarbonyl-7-phenylthio-1,3-diazaadamantan-6-one
Formula: C16H18N2O3S
CAS: 97934-04-8
Molecular weight: 318
m/z	intensity
38	15
39	224
40	61
41	240
42	999
43	48
44	15
45	55
50	49
51	175
52	20
53	24
54	112
55	38
56	17
57	16
58	108
59	164
63	14
65	163
66	40
67	60
68	43
69	104
74	11
75	13
76	18
77	225
78	51
79	20
80	84
81	16
82	24
83	15
84	15
85	14
86	10
89	13
90	8
91	368
92	65
93	18
94	32
95	11
96	61
99	13
102	9
103	9
104	10
105	67
106	9
108	20
109	193
110	53
111	10
113	71
114	10
115	19
116	14
119	9
121	22
122	52
123	46
126	37
127	24
128	18
134	92
135	228
136	67
137	12
144	16
147	27
148	12
149	38
150	21
162	22
163	18
176	12
177	107
178	13
180	14
181	8
190	11
209	22
219	13
229	13
230	40
231	8
244	62
245	7
247	12
248	9
259	12
261	14
275	9
276	22
287	9
318	135
319	26
320	8
321	1
