Mass Spectrum: 4-Benzyloxy-2-butynal 2,4-dinitrophenylhydrazone
Formula: C17H14N4O5
CAS: 97978-77-3
Molecular weight: 354
m/z	intensity
16	1
26	1
27	7
28	38
29	3
30	32
31	1
37	1
38	9
39	26
40	4
41	7
42	3
43	5
44	4
45	1
50	11
51	44
52	16
53	18
54	4
55	24
56	1
57	2
61	1
62	7
63	22
64	13
65	61
66	22
67	5
68	4
69	23
70	2
71	1
74	8
75	30
76	13
77	83
78	21
79	52
80	6
81	27
82	5
83	1
85	1
87	2
88	4
89	17
90	14
91	999
92	136
93	15
94	2
95	2
96	1
97	1
100	2
101	9
102	13
103	22
104	11
105	57
106	31
107	46
108	24
109	2
111	1
113	2
114	5
115	23
116	20
117	18
118	8
119	9
120	6
121	2
122	11
123	2
124	1
126	2
127	9
128	27
129	42
130	19
131	33
132	20
133	4
134	1
135	4
136	1
137	4
138	4
139	1
140	3
141	6
142	16
143	28
144	21
145	14
146	5
147	2
148	3
149	3
150	1
151	1
152	4
153	4
154	8
155	22
156	11
157	37
158	7
159	5
160	5
161	1
162	2
163	2
164	4
165	6
166	2
167	3
168	9
169	6
170	8
171	9
172	20
173	5
174	4
175	4
176	3
177	6
178	2
179	4
180	3
181	6
182	1
183	9
184	10
185	9
186	2
187	1
188	2
189	5
190	3
191	5
192	2
193	3
194	1
195	16
196	2
197	1
198	1
199	1
200	3
201	18
202	9
203	6
204	10
205	7
206	3
207	1
211	2
213	2
214	12
215	5
216	4
217	8
218	60
219	12
220	3
221	3
222	1
229	2
230	22
231	46
232	14
233	12
234	4
235	3
239	1
241	2
242	1
243	3
244	5
245	5
246	3
247	7
248	69
249	12
250	3
251	3
252	2
255	1
259	1
260	9
261	11
262	4
263	9
264	4
265	2
266	2
267	1
269	1
272	1
273	2
274	1
276	19
277	18
278	15
279	6
280	3
281	2
286	2
289	2
290	8
291	14
292	5
293	3
294	2
295	1
296	1
305	2
306	27
307	39
308	9
309	3
319	7
320	5
321	1
323	4
324	15
325	5
326	1
335	1
337	12
338	3
353	6
354	59
355	12
356	2
