Mass Spectrum: Imidazol-5(4H)-one, 2,4-dibenzyl-
Formula: C17H16N2O
CAS: 97978-58-0
Molecular weight: 264
m/z	intensity
36	8
37	4
38	16
39	69
40	15
41	29
42	18
43	62
44	61
45	17
46	5
49	2
50	30
51	67
52	18
53	4
54	7
55	5
56	2
57	3
58	3
60	3
61	1
62	16
63	61
64	22
65	188
66	11
67	2
69	7
71	2
74	22
75	12
76	14
77	64
78	31
79	12
80	0
82	4
83	2
84	1
87	4
89	87
90	72
91	999
92	147
93	11
94	1
98	1
101	3
102	21
103	40
104	41
105	23
106	5
107	3
108	0
112	2
114	1
115	7
116	37
117	80
118	69
119	12
120	35
121	4
122	0
127	1
128	26
129	5
130	14
131	9
132	2
133	40
134	12
135	15
136	5
137	1
141	0
142	2
143	3
144	6
145	36
146	12
147	19
148	6
149	2
155	0
159	3
162	0
165	2
167	5
169	0
171	5
172	21
173	51
174	6
175	2
176	12
177	3
178	1
179	1
180	13
181	1
183	0
185	1
186	1
187	6
188	4
189	1
190	1
191	27
192	4
193	2
194	1
196	1
204	1
205	2
206	2
208	1
212	0
216	0
218	4
219	2
220	12
221	10
222	1
224	0
231	1
233	10
234	1
235	12
236	6
237	13
238	20
239	1
247	11
249	2
260	19
261	8
262	19
263	21
264	434
265	91
266	8
