Mass Spectrum: Benzenesulfonyl fluoride, 4-amino-
Formula: C6H6FNO2S
CAS: 98-62-4
Molecular weight: 175
m/z	intensity
16	2
28	102
32	33
37	3
38	53
39	175
40	18
41	74
42	7
48	13
50	35
51	35
52	121
53	114
54	29
61	24
62	83
63	215
64	171
65	885
66	99
67	83
69	7
74	15
79	21
80	587
81	32
83	32
84	47
90	12
91	114
92	309
93	7
107	2
108	999
109	60
111	152
175	970
176	50
177	32
