Mass Spectrum: p-Ethylbenzenesulfonic acid
Formula: C8H10O3S
CAS: 98-69-1
Molecular weight: 186
m/z	intensity
15	5
17	1
18	3
26	4
27	48
28	4
29	8
32	1
37	4
38	13
39	78
40	9
41	12
43	2
44	1
45	4
48	9
49	4
50	66
51	114
52	30
53	30
54	1
55	5
57	1
58	1
59	1
61	7
62	28
63	83
64	25
65	39
66	7
67	2
68	1
69	7
70	2
71	1
73	3
74	29
75	27
76	26
77	284
78	89
79	131
80	9
81	18
82	2
83	1
84	1
85	2
86	5
87	7
88	3
89	89
90	60
91	38
92	5
93	10
94	9
95	2
97	2
98	4
99	1
101	4
102	21
103	115
104	91
105	999
106	92
107	321
108	24
109	3
119	2
120	3
121	7
122	3
123	3
135	3
137	1
138	4
139	2
141	1
153	3
158	2
159	1
169	6
170	1
171	237
172	20
173	13
174	1
184	1
185	4
186	296
187	30
188	16
189	2
