Mass Spectrum: Boronic acid, phenyl-
Formula: C6H7BO2
CAS: 98-80-6
Molecular weight: 122
m/z	intensity
26	8
27	20
28	8
29	3
31	0
36	1
37	9
38	15
39	54
40	2
41	1
42	0
43	0
44	45
45	183
46	0
47	1
48	2
49	10
50	106
51	168
52	98
53	24
54	2
55	1
56	0
57	0
60	0
61	2
62	4
63	13
64	2
65	3
66	2
67	1
68	0
69	0
71	0
72	1
73	7
74	28
75	15
76	30
77	151
78	999
79	58
80	2
82	1
83	0
85	0
86	0
87	0
88	0
89	0
91	1
92	0
94	0
99	0
100	1
101	2
102	3
103	15
104	35
105	37
106	2
109	0
119	0
120	0
121	135
122	572
123	37
124	4
125	0
