Mass Spectrum: Benzenecarbothioic acid
Formula: C7H6OS
CAS: 98-91-9
Molecular weight: 138
m/z	intensity
25	0
26	4
27	11
29	0
31	0
33	13
34	5
35	0
37	5
38	14
39	14
40	5
41	2
43	1
44	7
45	4
46	0
47	0
48	0
49	7
50	94
51	203
52	9
53	3
54	1
55	3
56	0
57	1
58	1
59	0
60	2
61	4
62	6
63	5
64	1
65	9
66	4
67	0
68	0
69	7
70	1
72	0
73	6
74	36
75	21
76	100
77	750
78	67
79	3
80	0
81	1
82	1
83	0
84	0
85	0
86	0
87	0
88	0
91	0
92	1
93	1
94	1
95	0
97	0
103	0
104	3
105	999
106	68
107	5
108	1
109	16
110	5
111	1
112	0
115	0
117	0
119	0
136	0
138	9
139	1
140	1
