Mass Spectrum: Benzene, nitro-
Formula: C6H5NO2
CAS: 98-95-3
Molecular weight: 123
m/z	intensity
18	4
25	1
26	6
27	26
28	10
30	71
32	1
36	2
37	18
38	25
39	52
40	2
41	1
44	1
46	4
48	1
49	11
50	131
51	431
52	22
53	1
60	2
61	6
62	8
63	13
64	9
65	118
66	8
73	9
74	46
75	29
76	26
77	999
78	66
79	2
91	2
92	2
93	108
94	8
107	10
108	1
123	526
124	38
125	3
