Mass Spectrum: 4-Bromo-2,6-bis(3,5-di-tert-butyl-4-hydroxybenzyl)phenol
Formula: C36H49BrO3
CAS: 98007-30-8
Molecular weight: 608
m/z	intensity
34	5
38	3
39	27
40	34
41	233
43	79
44	11
45	3
50	3
51	6
53	10
55	75
57	999
59	3
65	8
67	9
69	15
70	6
71	7
73	3
77	8
78	19
80	13
81	8
82	9
83	7
84	3
89	4
90	6
91	30
92	6
94	6
95	3
97	4
103	4
105	15
107	15
112	3
115	13
116	7
117	9
119	26
121	13
127	4
128	12
129	16
130	7
131	15
132	5
133	9
134	4
135	4
137	4
141	9
142	8
143	8
144	7
145	9
146	5
147	14
148	3
149	4
152	4
153	4
155	7
156	4
157	9
158	3
159	7
160	3
161	9
162	4
163	13
165	12
166	3
169	14
171	20
172	6
173	5
174	4
175	7
177	3
178	4
179	4
180	8
181	4
182	3
183	3
184	3
187	4
189	5
190	7
191	17
192	4
193	3
195	4
197	40
199	43
200	4
201	7
202	3
203	8
204	3
205	8
206	7
207	3
209	3
210	3
211	6
217	3
218	3
219	11
220	3
233	3
235	3
237	3
245	3
246	4
249	4
250	5
251	4
253	4
261	3
265	3
267	8
268	4
275	8
276	8
288	3
289	34
290	32
291	19
293	10
296	3
297	6
298	3
304	3
305	7
323	3
331	7
333	5
345	15
346	4
347	16
348	4
349	3
402	6
403	3
404	5
530	5
551	4
553	3
593	3
595	3
607	4
608	46
609	13
610	35
611	18
