Mass Spectrum: 4-(5-Bromo-3-tert-butylsalicyl)-2,6-di-tert-butylphenol
Formula: C25H35BrO2
CAS: 98007-26-2
Molecular weight: 446
m/z	intensity
34	6
35	1
36	6
37	4
39	110
41	583
43	157
44	38
45	5
50	7
51	17
53	38
55	122
57	999
59	5
60	2
63	9
65	20
67	18
68	19
70	25
71	12
72	3
73	4
75	4
76	7
77	42
78	20
79	32
80	16
81	13
82	21
83	16
84	7
85	5
86	1
87	2
88	2
89	10
91	88
92	22
94	5
95	9
96	6
97	9
99	4
100	1
101	5
102	16
103	25
104	15
105	36
107	25
108	9
109	8
110	6
111	8
112	8
113	5
115	65
116	25
117	61
118	39
119	44
120	9
121	12
122	13
123	6
124	9
125	9
126	5
127	13
128	33
129	26
130	13
131	37
132	27
133	30
134	16
135	44
136	5
137	2
138	2
139	5
141	15
143	17
144	9
145	36
146	39
147	47
148	9
149	11
150	92
151	14
152	11
153	9
154	9
155	12
156	5
157	9
158	6
159	11
160	8
161	25
162	49
163	26
164	10
165	19
166	9
167	3
168	4
169	11
170	5
171	14
172	18
173	17
174	3
175	10
176	6
177	4
178	9
179	10
180	47
181	53
183	5
185	13
186	10
187	11
188	5
189	16
191	207
192	29
193	9
194	32
195	40
197	14
198	5
199	18
200	5
201	9
203	16
204	8
205	18
206	171
207	33
208	43
209	56
211	6
213	4
214	2
215	15
216	25
217	4
219	9
221	4
222	2
223	5
225	46
226	9
227	32
228	5
229	2
232	1
233	2
234	1
235	3
236	1
237	4
238	1
239	8
240	6
241	56
242	10
243	51
244	6
245	1
246	1
247	1
251	1
253	2
255	3
265	1
311	2
319	1
321	2
333	4
334	9
335	6
336	9
337	2
353	4
367	3
368	4
369	1
373	1
375	14
376	3
377	12
378	2
387	3
389	9
390	16
391	9
392	16
393	4
426	1
427	2
428	2
429	3
430	5
431	56
432	20
433	58
434	13
435	2
442	3
443	3
444	4
445	6
446	109
447	32
448	105
449	26
450	4
