Mass Spectrum: 4,5-Dihydro-3-furoic acid
Formula: C5H6O3
CAS: 98021-62-6
Molecular weight: 114
m/z	intensity
12	1
13	3
14	9
15	16
16	3
17	4
18	16
19	1
22	1
24	1
25	7
26	26
27	58
28	58
29	130
30	6
31	31
32	3
33	2
34	10
36	5
37	46
38	94
39	535
40	291
41	533
42	84
43	39
44	96
45	118
46	5
47	7
48	11
49	4
50	9
51	9
52	7
53	64
54	6
55	54
56	124
57	19
58	9
60	4
65	1
66	10
67	37
68	636
69	420
70	73
71	99
72	3
77	3
78	14
79	2
81	1
83	17
84	18
85	27
86	24
87	1
91	1
95	56
96	724
97	515
98	29
99	7
112	9
113	32
114	999
115	66
116	8
