Mass Spectrum: 4,5,6-Triaminopyrimidine-2-sulfinic acid
Formula: C4H7N5O2S
CAS: 98022-70-9
Molecular weight: 189
m/z	intensity
25	3
26	5
27	46
28	269
29	99
30	12
33	4
34	5
38	16
39	20
40	23
41	31
42	57
43	406
44	252
45	89
46	5
47	4
48	330
49	5
50	20
51	5
52	8
53	125
54	230
55	138
56	139
57	13
58	3
59	4
60	6
61	4
62	4
64	512
65	15
66	53
67	25
68	19
69	13
70	105
71	447
72	23
73	6
74	6
79	6
80	9
81	76
82	23
83	18
84	7
85	6
93	6
95	6
96	7
97	55
98	307
99	20
100	5
101	5
107	11
108	50
109	14
124	18
125	999
126	180
127	11
