Mass Spectrum: 2,2,4-Trimethyl-1,3-oxathiane
Formula: C7H14OS
CAS: 98033-18-2
Molecular weight: 146
m/z	intensity
41	480
42	110
43	600
44	210
45	300
46	180
47	210
54	220
55	630
57	120
58	130
59	800
60	999
61	150
72	120
73	220
88	650
89	150
131	330
146	450
147	30
148	30
