Mass Spectrum: 1,3-Dioxolane-4-carbothioic acid, 2-(1,1-dimethylethyl)-4-(1-hydroxy-1-methylethyl)-, S-(1,1-dimethylethyl) ester, (2R-trans)-
Formula: C15H28O4S
CAS: 98041-28-2
Molecular weight: 304
m/z	intensity
26	12
27	77
28	3
29	219
30	5
31	28
37	7
38	9
39	93
40	14
41	424
42	37
43	398
44	44
45	25
47	6
49	11
50	4
51	5
52	1
53	19
54	5
55	125
56	52
57	999
58	98
59	115
60	7
61	9
67	15
68	2
69	615
70	53
71	98
72	12
73	44
74	7
75	7
76	2
77	13
81	2
83	42
84	13
85	68
86	26
87	329
88	17
89	8
90	4
95	2
97	4
99	4
100	11
101	119
102	13
103	14
104	83
105	43
106	5
107	2
111	9
112	2
113	14
115	7
116	3
117	4
119	52
120	3
127	3
128	4
129	381
130	30
131	4
133	101
134	5
135	5
141	4
143	2
144	10
145	16
147	6
149	3
155	3
157	5
160	14
161	31
162	3
163	6
169	19
170	3
171	2
172	3
173	3
175	14
187	229
188	25
189	180
190	46
191	18
192	3
197	1
203	0
215	0
219	1
233	10
245	1
246	19
247	16
248	2
249	1
286	0
289	1
303	1
