Mass Spectrum: 6-Azauridine, 2',3',5'-tri-O-acetyl-4-thio-
Formula: C14H17N3O8S
CAS: 98075-51-5
Molecular weight: 387
m/z	intensity
41	22
42	29
43	999
44	40
45	60
46	5
47	3
49	2
51	1
52	2
53	4
54	5
55	32
56	10
57	61
58	23
59	27
60	47
61	33
62	1
64	3
66	0
67	2
68	30
69	85
70	20
71	40
72	24
73	62
74	6
75	2
76	1
77	2
80	1
81	5
82	4
83	6
84	18
85	118
86	62
87	19
88	5
89	3
91	1
95	2
96	18
97	224
98	17
99	23
100	12
101	7
102	6
103	17
104	3
105	4
106	0
109	1
110	1
111	4
112	5
113	10
114	26
115	87
116	11
117	4
121	1
122	2
124	2
125	2
126	14
127	79
128	27
129	61
130	80
131	14
132	11
133	5
137	0
138	10
139	224
140	17
141	5
142	27
143	12
144	3
145	6
146	1
147	0
149	1
151	0
152	0
153	0
154	6
155	4
156	24
157	69
158	21
159	5
160	2
161	1
165	0
166	2
167	3
168	6
169	4
170	12
171	18
172	24
173	6
174	9
175	119
176	8
177	1
180	7
181	1
182	8
183	4
184	37
185	4
186	2
187	3
188	6
189	0
192	4
194	0
195	0
196	16
197	4
198	23
199	3
200	6
201	1
202	2
203	0
207	1
208	12
209	7
210	2
212	52
213	9
214	7
215	2
216	5
217	349
218	32
219	5
221	0
224	2
225	9
226	13
227	3
228	0
230	4
231	0
239	1
240	9
241	1
242	3
243	19
244	3
245	1
251	1
254	1
255	2
256	4
258	7
259	276
260	30
261	14
262	2
267	2
268	1
269	1
272	6
273	1
284	0
285	30
286	4
287	2
298	2
303	13
304	2
305	0
314	5
315	1
327	1
328	0
345	22
346	4
347	2
387	18
388	3
389	1
