Mass Spectrum: N-(2-Carbomethoxyvinyl)methylamine
Formula: C5H9NO2
CAS: 98071-13-7
Molecular weight: 115
m/z	intensity
27	30
28	150
29	74
30	22
31	40
32	22
40	14
41	122
42	420
43	30
44	10
45	20
53	20
54	36
55	80
56	98
57	80
58	10
59	10
73	10
82	110
83	140
84	999
85	120
86	11
100	30
115	780
116	80
117	10
