Mass Spectrum: Benzene, [1-[[1-(1-methylethyl)-3-butenyl]oxy]ethyl]-, [S-(R*,R*)]-
Formula: C15H22O
CAS: 98088-51-8
Molecular weight: 218
m/z	intensity
25	0
27	20
28	3
29	7
31	2
38	0
39	17
40	2
41	31
42	3
43	21
44	1
45	2
50	2
51	13
52	3
53	6
54	3
55	32
56	10
57	3
59	1
63	2
65	4
66	1
67	2
69	4
70	1
71	3
72	1
73	10
74	1
75	8
76	2
77	56
78	15
79	51
80	3
81	5
83	1
89	2
90	1
91	6
96	1
97	6
98	1
101	1
102	2
103	28
104	20
105	999
106	93
107	14
108	1
115	0
117	1
119	2
121	5
125	1
131	0
143	4
145	1
146	1
148	1
157	0
161	4
163	1
175	3
177	14
178	1
179	4
180	0
203	2
219	0
