Mass Spectrum: Benzene, [1-(2-propenyloxy)-3-butenyl]-
Formula: C13H16O
CAS: 98088-48-3
Molecular weight: 188
m/z	intensity
26	3
27	28
28	4
29	6
38	4
39	109
40	9
41	999
42	33
43	5
50	15
51	63
52	15
53	21
54	6
55	11
57	3
62	3
63	15
64	5
65	22
66	2
67	4
74	4
75	6
76	8
77	163
78	29
79	47
80	3
89	14
90	7
91	367
92	27
102	8
103	19
104	12
105	439
106	36
107	30
108	3
115	38
116	28
117	13
119	26
120	2
127	13
128	27
129	33
130	12
131	88
132	10
147	657
148	69
149	9
161	2
