Mass Spectrum: Benzene, [3-(1-methylethoxy)-5-hexenyl]-
Formula: C15H22O
CAS: 98088-49-4
Molecular weight: 218
m/z	intensity
27	39
28	9
29	7
31	3
39	34
40	5
41	84
42	8
43	221
44	14
45	3
50	2
51	16
52	4
53	9
55	10
56	3
57	6
58	2
59	5
63	7
64	2
65	46
66	4
67	8
68	2
69	3
70	3
71	103
72	4
76	2
77	30
78	25
79	18
80	2
81	8
89	7
90	5
91	999
92	98
93	4
102	4
103	13
104	20
105	47
106	5
113	11
115	12
116	5
117	362
118	36
119	2
128	2
129	5
131	2
133	42
134	8
135	198
136	19
158	17
159	8
177	209
178	27
179	2
