Mass Spectrum: 2,5-Dimethyl-1,1-diphenyl-2-pseudodithiobiuret
Formula: C16H17N3S2
CAS: 98111-13-8
Molecular weight: 315
m/z	intensity
41	7
42	58
43	4
44	9
45	83
46	29
47	79
48	8
49	17
50	66
51	406
52	45
53	11
54	2
55	15
56	15
57	26
58	11
59	65
60	19
61	17
62	21
63	88
64	60
65	122
66	64
67	12
69	24
70	31
71	1
72	118
74	788
75	3
77	999
78	4
79	180
80	15
81	15
82	14
84	26
85	18
86	10
88	92
89	46
90	1
91	179
92	123
93	21
94	2
95	2
96	0
97	22
99	109
100	7
101	1
102	89
103	50
104	71
105	2
106	63
107	0
109	137
110	13
111	6
113	12
114	0
115	85
116	18
117	41
118	58
119	27
120	32
121	13
122	7
123	4
124	11
126	15
127	10
128	12
129	6
131	7
132	0
133	29
135	73
136	5
137	3
139	47
140	32
141	24
142	10
144	19
147	2
150	77
151	26
152	30
153	17
154	11
155	1
158	94
160	44
161	22
163	5
166	7
167	370
168	226
169	149
170	18
172	1
175	1
177	6
178	9
180	53
181	5
182	3
183	1
184	1
185	0
186	0
188	0
190	4
192	9
193	1
194	3
195	297
196	29
197	3
198	2
199	2
200	3
201	0
206	62
207	7
208	2
209	2
210	2
211	0
212	25
213	2
214	1
219	0
220	0
222	0
224	20
225	8
227	17
228	1
229	0
234	1
236	3
238	3
239	4
240	5
241	22
242	7
243	2
245	0
250	0
252	0
253	0
255	0
259	5
260	0
261	0
266	5
268	76
269	13
271	3
277	0
280	0
282	8
283	0
285	3
286	0
300	160
301	22
302	13
303	2
307	0
315	32
316	4
317	1
318	0
