Mass Spectrum: Propionamide, 3-bromo-N-carbomethoxy-
Formula: C5H8BrNO3
CAS: 98143-22-7
Molecular weight: 209
m/z	intensity
33	16
34	0
37	0
38	2
39	5
40	17
41	18
42	34
43	41
44	113
45	46
46	9
47	0
50	0
51	2
52	7
53	11
54	19
55	335
56	38
57	4
58	109
59	232
60	5
61	0
62	0
67	0
68	5
70	47
71	4
72	15
73	2
75	14
76	119
77	6
79	17
80	10
81	15
82	11
83	0
84	0
87	46
88	77
89	3
90	0
91	0
92	1
93	11
94	5
95	9
96	4
97	0
98	21
99	1
100	0
101	3
102	21
103	15
104	2
105	9
106	23
107	241
109	248
110	5
112	0
113	0
114	0
115	2
116	1
117	0
122	6
123	0
124	5
125	0
128	0
130	999
131	58
132	11
133	9
134	7
135	107
137	97
138	2
141	1
144	1
151	0
152	1
153	0
154	0
165	0
169	0
177	0
178	3
179	0
180	2
193	0
194	1
195	0
196	1
197	0
208	0
209	4
210	0
211	3
