Mass Spectrum: Methyl 5-acetamido-1,3,4-thiadiazol-2-yl sulfone
Formula: C5H7N3O3S2
CAS: 98143-01-2
Molecular weight: 221
m/z	intensity
41	7
42	44
43	999
44	66
46	12
47	5
48	17
49	2
54	0
55	3
57	3
58	17
59	16
60	31
61	1
62	1
63	27
64	8
65	4
68	0
70	6
71	5
72	12
73	11
74	9
76	4
79	41
80	1
81	11
88	1
91	0
99	5
100	55
101	1
102	1
114	13
115	3
116	3
129	2
164	3
178	12
179	162
180	16
181	13
193	38
194	3
195	3
206	2
220	16
221	45
222	3
223	1
