Mass Spectrum: Methyl 2,3,4-tri-O-acetyl-1-deoxy-1-thioureido-beta-d-glucopyranuronate
Formula: C14H20N2O9S
CAS: 98167-61-4
Molecular weight: 392
m/z	intensity
13	3
14	76
15	58
16	8
17	2
18	3
24	3
25	8
26	34
27	81
28	236
29	69
30	40
31	56
32	47
33	16
34	47
35	1
36	3
37	7
38	15
39	29
40	21
41	83
42	308
43	999
44	101
45	82
46	28
47	5
48	5
49	6
50	20
51	15
52	12
53	14
54	13
55	28
56	12
57	11
58	25
59	121
60	155
61	20
62	5
63	4
64	9
65	10
66	11
67	9
68	15
69	16
70	18
71	45
72	21
73	27
74	8
75	9
76	29
77	108
78	10
79	11
80	9
81	9
82	12
83	34
84	50
85	54
86	23
87	10
88	34
89	7
90	22
91	4
92	4
93	10
94	16
95	32
96	35
97	46
98	28
99	23
100	47
101	45
102	29
103	68
104	9
105	14
106	3
107	4
108	4
109	5
110	10
111	34
112	101
113	106
114	32
115	40
116	42
117	27
118	18
119	44
120	6
121	10
122	39
123	16
124	6
125	22
126	36
127	141
128	40
129	89
130	20
131	15
132	7
133	4
134	3
135	2
136	5
137	23
138	10
139	32
140	38
141	18
142	28
143	44
144	28
145	43
146	13
147	33
148	4
149	4
150	2
151	1
152	4
153	68
154	317
155	208
156	50
157	43
158	17
159	11
160	4
161	6
162	1
163	2
164	2
165	3
166	3
167	9
168	9
169	14
170	23
171	203
172	45
173	33
174	5
175	2
176	2
178	1
179	10
180	7
181	15
182	14
183	6
184	8
185	9
186	7
187	24
188	14
189	27
190	5
191	2
194	1
195	3
196	19
197	34
198	27
199	48
200	9
201	6
202	3
203	2
205	1
207	1
210	1
211	1
212	22
213	317
214	73
215	45
216	9
217	3
218	1
223	1
224	1
226	1
227	1
228	1
229	21
230	26
231	19
232	5
233	2
238	1
239	1
240	2
241	15
242	4
243	2
244	1
245	1
247	2
248	1
249	1
255	2
256	5
257	22
258	38
259	8
260	4
261	1
272	53
273	100
274	20
275	8
276	1
289	26
290	10
291	10
292	1
300	16
301	5
302	2
317	10
318	2
319	3
332	175
333	34
334	13
335	2
360	20
361	5
362	1
374	1
392	3
393	4
