Mass Spectrum: Methyl 7-(2-furyl)heptanoate
Formula: C12H18O3
CAS: 98188-02-4
Molecular weight: 210
m/z	intensity
39	70
41	150
53	180
55	90
59	70
69	70
74	50
79	40
81	999
82	230
87	50
94	120
95	560
166	20
178	50
179	70
192	10
210	130
