Mass Spectrum: Methyl 6-(2-furyl)hexanoate
Formula: C11H16O3
CAS: 98188-03-5
Molecular weight: 196
m/z	intensity
42	110
43	40
53	180
55	100
59	70
68	60
74	70
81	999
82	260
83	60
87	30
94	80
95	580
164	70
165	130
196	270
