Mass Spectrum: Pyrrolizin-1,7-dione-6-carboxylic acid, methyl(ester)
Formula: C9H11NO4
CAS: 98183-35-8
Molecular weight: 197
m/z	intensity
41	417
42	262
43	268
44	963
45	129
46	17
47	21
48	18
49	25
50	20
51	32
52	35
53	115
54	139
55	543
56	226
57	79
58	33
59	193
60	49
61	11
62	7
63	20
64	18
65	45
66	38
67	121
68	96
69	194
70	102
71	115
72	27
73	29
74	48
75	12
76	6
77	30
78	21
79	83
80	59
81	77
82	163
83	111
84	999
85	171
86	57
87	66
88	11
89	9
90	4
91	28
92	12
93	26
94	44
95	70
96	87
97	169
98	226
99	58
100	61
101	61
102	21
103	6
104	6
105	16
106	14
107	18
108	34
109	41
110	166
111	67
112	50
113	128
114	45
115	28
116	29
117	8
118	13
119	13
120	15
121	28
122	32
123	42
124	56
125	21
126	34
127	41
128	48
129	47
130	10
131	7
132	36
133	17
134	13
135	17
136	30
137	44
138	39
139	83
140	84
141	46
142	95
143	32
144	9
145	29
146	16
147	9
148	17
149	13
150	16
151	12
152	28
153	32
154	27
155	41
156	73
157	77
158	61
159	12
160	9
161	5
162	14
163	11
164	27
165	15
166	47
167	33
168	22
169	30
170	3
171	7
172	2
173	1
174	0
175	0
176	0
177	0
178	1
179	10
180	11
181	22
182	36
183	19
184	3
185	1
186	1
187	1
188	0
189	0
190	1
191	0
192	0
193	0
194	2
195	5
196	11
197	42
198	24
199	13
200	9
