Mass Spectrum: 4(4-Chlorphenyl)-3-morpholinopyrrol-2-carboxylic acid, methyl ester
Formula: C16H17ClN2O3
CAS: 98236-55-6
Molecular weight: 320
m/z	intensity
14	4
15	70
16	29
17	265
18	999
19	6
26	9
27	42
28	85
29	55
30	11
31	19
32	4
33	7
36	5
38	6
39	20
40	16
41	63
42	24
43	89
44	21
45	77
46	4
50	9
51	15
52	8
53	9
54	13
55	68
56	25
57	91
58	7
59	13
60	5
61	4
62	7
63	20
64	7
65	7
66	5
67	23
68	9
69	50
70	29
71	52
72	6
73	6
74	11
75	24
76	11
77	15
78	7
79	8
80	6
81	28
82	14
83	52
84	23
85	34
86	10
87	14
88	13
89	13
90	9
91	10
92	4
93	7
94	8
95	30
96	15
97	68
98	21
99	26
100	12
101	27
102	18
103	7
104	7
105	5
107	6
108	5
109	20
110	10
111	41
112	16
113	37
114	26
115	27
116	9
117	5
119	4
120	3
121	6
122	5
123	17
124	9
125	22
126	29
127	51
128	18
129	10
130	7
131	3
135	7
136	21
137	13
138	17
139	30
140	93
141	33
142	8
143	2
144	2
145	5
147	7
148	6
149	22
150	7
151	14
152	10
153	17
154	14
155	10
156	3
161	4
162	9
163	6
164	6
165	14
166	18
167	51
168	36
169	13
170	4
173	1
174	16
175	6
176	12
177	6
178	4
179	6
180	5
181	9
182	7
183	6
187	2
188	3
189	4
190	5
191	4
192	3
193	5
194	11
195	59
196	13
197	5
198	1
200	1
201	12
202	15
203	23
204	11
205	8
206	3
207	2
208	3
209	3
210	2
211	2
214	1
215	4
216	5
217	13
218	5
219	6
220	1
221	4
222	7
223	8
224	7
225	4
226	2
227	1
228	3
229	96
230	49
231	58
232	21
233	12
234	2
235	1
237	1
238	1
239	1
241	2
242	1
243	9
244	9
245	7
246	3
247	3
248	0
249	5
250	1
251	2
252	3
253	2
254	3
255	1
257	21
258	5
259	29
260	6
261	69
262	11
263	22
264	4
265	1
269	1
270	1
271	2
273	3
274	0
275	9
276	35
277	13
278	13
279	3
280	0
287	6
288	9
289	34
290	8
291	11
292	2
301	4
302	4
303	2
304	1
305	9
306	1
307	3
308	0
320	56
321	11
322	19
323	3
