Mass Spectrum: Propanedinitrile, 1-(2-chlorophenyl)-3-oxobutyl-
Formula: C13H11ClN2O
CAS: 98235-20-2
Molecular weight: 246
m/z	intensity
27	16
29	15
38	44
39	40
42	18
43	999
50	40
51	85
52	20
58	98
62	19
63	37
65	12
66	96
67	12
74	35
75	72
76	40
77	49
88	13
89	16
98	12
99	26
100	23
101	89
102	79
103	74
115	18
125	22
126	36
127	26
128	18
133	16
137	102
138	32
139	34
140	23
145	295
146	31
152	17
153	195
154	26
161	16
162	12
165	68
167	26
177	27
179	14
180	16
188	105
189	38
190	34
191	17
211	225
212	42
