Mass Spectrum: Dodecanediamide, N,N'-diphenyl-
Formula: C24H32N2O2
CAS: 98259-17-7
Molecular weight: 380
m/z	intensity
26	0
27	10
28	13
29	22
30	1
38	0
39	10
40	8
41	60
42	9
43	31
44	1
45	0
50	0
51	4
52	1
53	4
54	3
55	71
56	7
57	14
58	1
59	0
63	1
64	2
65	17
66	17
67	22
68	3
69	41
70	3
71	7
72	0
75	0
76	1
77	40
78	4
79	6
80	0
81	21
82	2
83	23
84	2
85	4
89	0
90	0
91	9
92	48
93	999
94	205
95	19
96	1
97	9
98	1
99	1
103	0
104	4
105	3
106	7
107	5
108	0
109	3
110	0
111	4
112	0
113	0
115	0
117	1
118	2
119	3
120	55
121	5
122	0
123	4
124	0
125	2
126	0
128	0
129	0
130	2
131	0
132	4
133	3
134	13
135	91
136	12
137	1
138	0
139	0
144	0
145	0
146	5
147	3
148	22
149	7
150	1
151	0
152	0
153	1
157	0
158	0
159	2
160	2
161	1
162	5
163	1
164	0
165	1
166	0
167	0
168	0
169	0
172	1
173	1
174	1
175	1
176	6
177	2
183	0
184	0
185	2
186	0
187	0
188	1
189	0
190	9
191	2
192	3
193	2
194	1
195	10
196	1
202	0
203	0
204	4
205	0
210	0
216	0
218	4
219	1
220	2
221	0
228	0
232	2
233	0
242	0
244	7
245	5
246	122
247	23
248	2
257	0
258	9
259	2
260	6
261	1
268	0
269	0
270	3
271	0
284	0
285	2
286	22
287	13
288	226
289	46
290	5
291	0
322	0
361	0
378	10
379	4
380	65
381	18
382	2
383	0
