Mass Spectrum: 4-Imidazolidinone, 1-benzoyl-2-(1,1-dimethylethyl)-3,5-dimethyl-5-(1-methylethyl)-, (2R-cis)-
Formula: C19H28N2O2
CAS: 98262-58-9
Molecular weight: 316
m/z	intensity
27	7
28	6
29	16
30	2
39	7
40	1
41	34
42	47
43	16
49	2
50	2
51	15
52	1
53	2
54	1
55	11
56	4
57	22
58	2
67	1
68	2
69	8
70	3
71	1
72	1
76	6
77	157
78	13
79	1
82	2
83	5
84	3
85	2
86	1
96	2
97	5
98	10
99	0
100	1
104	4
105	999
106	82
107	5
111	5
112	8
113	1
124	1
125	12
126	1
136	1
138	0
139	2
140	7
141	1
144	1
161	2
259	319
260	58
262	6
273	2
301	2
316	1
