Mass Spectrum: Imidazolidin-4-one, 1-benzoyl-2-t-butyl-3-methyl-4-ethyl-4-[2-(methylthio)ethyl]-
Formula: C20H30N2O2S
CAS: 98262-62-5
Molecular weight: 362
m/z	intensity
25	0
26	1
27	7
28	5
29	14
30	1
31	2
33	0
34	0
35	2
36	1
37	0
38	0
39	7
40	1
41	26
42	39
43	15
44	1
45	3
46	0
47	4
48	1
49	19
50	3
51	16
52	2
53	3
54	2
55	16
56	10
57	23
58	5
59	2
60	2
61	19
62	0
63	1
64	0
65	2
66	0
67	5
68	3
69	7
70	3
71	5
72	1
73	1
74	2
75	6
76	6
77	199
78	16
79	3
80	0
81	2
82	3
83	7
84	7
85	3
86	4
87	0
88	0
89	0
90	0
91	3
92	0
93	0
94	0
95	2
96	4
97	3
98	4
99	1
100	2
101	1
102	1
103	1
104	6
105	999
106	78
107	7
108	1
109	1
110	1
111	27
112	2
113	0
114	0
115	1
116	2
117	1
118	1
119	1
120	0
121	0
122	0
123	1
124	1
125	2
126	21
127	5
128	1
129	0
130	0
131	0
132	1
133	0
134	0
135	0
136	0
137	0
138	0
139	0
140	0
141	0
142	0
143	1
144	4
145	0
146	2
147	0
148	0
149	5
150	0
151	0
152	0
153	1
154	0
155	0
156	0
157	0
158	0
159	0
160	0
161	1
162	0
163	1
164	0
165	0
166	0
167	1
168	0
169	0
170	0
171	0
172	0
173	0
174	1
175	0
176	0
177	0
178	0
179	0
180	0
181	0
182	0
183	0
184	0
185	3
186	0
187	0
188	1
189	0
190	0
191	0
192	0
193	0
194	0
195	0
196	0
197	0
198	0
199	0
200	0
201	0
202	0
203	0
204	0
205	0
206	0
207	0
208	0
209	0
210	0
211	0
213	0
214	0
215	0
216	0
217	0
218	0
219	0
220	0
223	0
224	0
225	0
227	0
228	0
229	0
230	1
231	9
232	1
233	0
234	0
235	0
236	0
240	0
243	0
245	0
246	0
256	0
257	2
258	0
259	0
264	0
265	0
271	0
272	0
274	0
275	0
276	0
277	0
278	0
287	0
288	0
289	0
290	0
291	0
292	0
293	0
295	0
299	0
303	0
304	0
305	238
306	42
307	13
308	2
347	1
348	0
362	0
363	0
