Mass Spectrum: 1-Benzoyl-2-t-butyl-5-ethyl-5-isopropyl-3-methyl-imidazolidin-4-one
Formula: C20H30N2O2
CAS: 98262-59-0
Molecular weight: 330
m/z	intensity
26	10
27	3
29	22
39	10
40	2
41	45
42	49
43	12
44	4
50	3
51	19
52	2
53	3
55	14
56	8
57	27
58	2
66	3
69	7
70	3
76	6
77	178
78	13
84	2
97	3
98	4
104	4
105	999
106	73
107	4
111	10
125	2
126	3
153	1
161	2
174	1
190	0
203	0
219	1
231	0
245	4
273	220
274	35
275	3
287	1
330	1
