Mass Spectrum: 1-Hexanamine, N-nitro-
Formula: C6H14N2O2
CAS: 98275-81-1
Molecular weight: 146
m/z	intensity
28	263
29	258
30	999
39	201
41	501
42	274
43	819
44	97
46	121
55	603
56	307
69	105
75	390
83	132
84	109
85	20
100	96
