Mass Spectrum: (5-Carbamoyl-2,4-dioxo-3H-pyrimidin-1-yl)acetic acid
Formula: C7H7N3O5
CAS: 98279-95-9
Molecular weight: 213
m/z	intensity
35	4
36	40
37	16
38	67
39	64
40	114
41	147
42	308
43	246
44	999
45	264
46	3
50	11
51	54
52	140
53	325
54	140
55	136
56	38
57	51
58	92
59	24
60	6
63	7
64	6
65	5
66	8
67	27
68	74
69	46
70	62
71	7
75	8
77	6
78	4
80	32
81	40
82	185
83	28
84	11
85	10
86	85
87	9
95	3
96	19
97	102
98	28
99	5
100	7
109	4
110	8
112	15
113	7
123	4
124	12
125	47
126	36
127	9
128	18
137	7
139	41
140	3
150	6
151	11
152	63
153	81
155	27
168	4
169	84
170	8
171	6
187	5
197	27
198	4
212	9
213	90
214	15
215	2
