Mass Spectrum: Carveol, phenylcarbaminate(ester)
Formula: C17H21NO2
CAS: 98282-31-6
Molecular weight: 271
m/z	intensity
41	99
42	16
43	82
44	17
45	4
46	0
49	0
50	6
51	31
52	17
53	60
54	12
55	116
56	14
57	10
58	1
59	1
60	5
61	27
62	5
63	19
64	23
65	153
66	35
67	69
68	33
69	29
70	2
71	3
73	0
74	2
75	1
77	190
78	32
79	139
80	18
81	35
82	10
83	17
84	31
85	2
87	0
88	0
89	3
90	3
91	244
92	139
93	999
94	89
95	15
96	3
97	3
98	0
99	0
101	1
102	2
103	14
104	8
105	90
106	21
107	574
108	54
109	37
110	2
111	1
112	0
113	0
115	13
116	0
117	20
118	11
119	140
120	49
121	6
123	6
124	1
125	0
127	0
128	1
129	1
130	1
131	2
132	30
133	17
134	84
135	162
136	20
137	20
138	9
139	1
141	0
142	0
143	0
144	2
145	0
146	1
147	1
149	0
150	0
151	2
152	58
153	6
154	0
156	0
157	2
158	15
159	63
160	9
168	0
170	2
171	17
172	6
173	0
182	0
183	0
184	24
185	5
186	1
188	0
197	0
198	2
199	2
212	27
213	5
226	7
227	81
228	15
229	1
238	0
239	0
270	0
271	135
272	24
273	5
274	0
