Mass Spectrum: 5-Benzyl-2,3-dibenzoyl-cis-4,5-diphenyl-.delta.(2)-pyrroline
Formula: C37H29NO2
CAS: 98304-67-7
Molecular weight: 519
m/z	intensity
77	40
91	70
105	999
178	40
192	30
234	20
248	70
249	30
270	50
283	110
284	50
285	20
414	30
427	50
428	40
441	90
442	20
518	80
519	20
