Mass Spectrum: 1,1'-Bicyclohexyl, 4-propoxy-4'-propyl-
Formula: C18H34O
CAS: 98321-58-5
Molecular weight: 266
m/z	intensity
27	247
28	60
29	240
30	10
31	74
39	133
41	818
43	640
44	108
45	101
51	10
53	114
55	692
57	999
58	111
59	24
65	37
67	507
68	103
69	508
70	47
71	54
77	67
79	243
80	132
81	757
82	324
83	393
84	32
85	28
86	78
87	43
91	67
93	120
94	45
95	275
96	97
97	171
99	568
100	92
105	21
107	77
108	133
109	291
110	89
111	135
112	13
119	11
121	172
122	210
123	340
124	201
125	91
135	99
136	67
137	56
138	58
139	30
141	9
149	55
150	27
151	52
152	13
163	368
164	96
165	31
166	10
177	405
178	89
180	9
191	17
195	14
206	628
207	133
208	16
