Mass Spectrum: Cyclohexanone, 2,3-dimethyl-2-(3-oxobutyl)-
Formula: C12H20O2
CAS: 98361-31-0
Molecular weight: 196
m/z	intensity
26	13
27	160
29	128
30	7
31	11
34	9
38	10
39	218
40	186
41	473
42	95
43	999
44	793
45	34
50	12
51	36
52	19
53	123
54	48
55	400
56	41
57	35
58	73
59	11
63	11
65	29
66	20
67	176
68	78
69	279
70	68
71	121
72	20
77	43
78	12
79	60
80	17
81	143
82	276
83	198
84	31
85	12
87	10
91	30
92	8
93	51
94	26
95	208
96	50
97	231
98	102
99	27
100	7
105	14
107	130
108	54
109	132
110	251
111	390
112	70
113	9
119	9
120	32
121	52
122	48
123	45
124	9
125	167
126	580
127	56
128	9
134	12
135	47
136	12
137	13
138	57
139	146
140	22
141	44
142	11
145	8
149	7
150	7
152	21
153	79
154	13
155	27
156	8
163	29
164	6
165	9
167	5
168	18
169	11
178	35
179	9
180	7
181	27
182	6
183	5
196	78
197	15
198	5
