Mass Spectrum: 2(5H)-Oxepinone, 3-(4-methoxyphenyl)-7-phenyl-
Formula: C19H16O3
CAS: 98386-58-4
Molecular weight: 292
m/z	intensity
39	19
41	15
43	19
44	8
45	13
50	8
51	41
52	6
53	6
55	33
56	47
57	13
61	13
63	27
64	6
65	11
69	5
70	8
71	6
75	9
76	13
77	233
78	29
79	12
83	5
89	75
90	11
91	20
92	8
93	6
98	7
99	15
101	8
102	18
103	15
104	5
105	999
106	77
107	11
108	19
115	69
116	34
117	47
118	10
119	5
121	16
127	30
128	39
129	13
131	10
132	56
133	17
135	26
143	17
144	46
145	15
156	6
157	7
158	9
159	55
160	7
165	8
178	8
187	31
188	6
189	7
191	7
199	7
202	13
203	13
204	6
205	7
215	5
220	11
221	7
224	6
233	11
235	5
248	16
249	8
263	23
264	40
265	7
276	8
292	223
293	46
294	5
