Mass Spectrum: 4-Methoxy-1-pentene
Formula: C6H12O
CAS: 98386-09-5
Molecular weight: 100
m/z	intensity
39	110
40	20
41	140
42	30
43	70
45	30
53	40
55	40
58	10
59	999
60	40
67	30
68	10
69	40
85	50
99	5
100	5
