Mass Spectrum: Bicyclo[2.2.2]oct-5-en-2-one, 1-methoxy-4-(2-methoxyethyl)-
Formula: C12H18O3
CAS: 98395-27-8
Molecular weight: 210
m/z	intensity
26	11
27	59
28	10
29	35
30	2
31	9
33	2
37	1
38	6
39	74
40	19
41	57
42	12
43	27
44	1
45	282
46	7
47	1
49	0
50	11
51	34
52	28
53	39
54	5
55	24
56	2
57	9
58	3
59	11
60	0
61	1
62	2
63	12
64	5
65	44
66	21
67	16
68	8
69	4
70	0
71	6
72	2
74	1
75	4
76	1
77	73
78	26
79	71
80	19
81	10
82	3
83	7
84	2
85	3
87	0
89	3
90	5
91	111
92	20
93	21
94	8
95	10
96	16
97	7
98	4
99	0
101	4
102	1
103	9
104	4
105	36
106	5
107	21
108	41
109	57
110	16
111	4
115	2
116	1
117	11
118	12
119	11
120	6
121	45
122	30
123	999
124	98
125	7
133	1
134	1
135	27
136	9
137	39
138	4
139	0
146	1
148	2
149	6
150	43
151	13
152	4
153	1
154	3
155	1
163	1
165	0
166	6
167	2
168	424
169	44
170	3
182	8
183	1
210	1
