Mass Spectrum: 1-(4-Hydroxy-3-isopropenyl-4,7,7-trimethyl-cyclohept-1-enyl)-ethanone
Formula: C15H24O2
CAS: 98419-02-4
Molecular weight: 236
m/z	intensity
27	38
28	6
29	44
31	6
39	57
40	9
41	140
42	14
43	999
44	25
45	16
50	4
51	22
52	9
53	45
54	6
55	92
56	13
57	49
58	16
59	25
61	4
63	10
64	4
65	32
66	9
67	41
68	7
69	58
70	12
71	57
72	6
75	5
76	4
77	83
78	19
79	61
80	17
81	92
82	14
83	38
84	10
85	14
89	5
91	101
92	15
93	60
94	11
95	88
96	13
97	21
98	7
99	13
102	4
103	12
104	8
105	86
106	19
107	119
108	22
109	64
110	10
111	18
112	14
113	108
114	9
115	16
116	6
117	12
118	4
119	87
120	41
121	100
122	31
123	266
124	36
125	16
126	3
127	3
128	8
129	8
130	5
131	9
132	4
133	41
134	51
135	86
136	20
137	24
138	7
139	10
140	3
141	7
142	3
143	4
144	2
145	12
146	5
147	261
148	33
149	48
150	9
151	21
152	4
153	5
155	3
157	6
159	5
160	6
161	26
162	5
163	16
164	3
165	126
166	17
167	6
169	2
170	3
175	132
176	28
177	7
178	10
179	11
180	3
181	5
185	7
186	3
193	12
194	3
203	8
218	5
221	49
222	8
236	3
