Mass Spectrum: 1-Morpolino-2,3-butadiene
Formula: C8H13NO
CAS: 98425-85-5
Molecular weight: 139
m/z	intensity
26	16
27	143
29	76
30	55
31	8
38	6
39	43
40	8
41	77
42	207
43	19
44	25
45	13
50	14
51	34
52	27
53	129
54	83
55	68
56	266
57	27
58	11
65	8
69	5
70	49
71	6
72	24
79	9
80	27
81	12
82	12
85	8
86	16
87	16
93	3
94	11
96	7
98	6
100	999
101	59
102	2
108	27
109	10
138	9
139	10
