Mass Spectrum: Diethyl 2-methoxyethyl phosphate
Formula: C7H17O5P
CAS: 98425-27-5
Molecular weight: 212
m/z	intensity
15	47
27	66
29	159
31	90
43	70
44	22
45	532
58	999
59	199
65	31
81	158
82	43
91	47
95	74
96	42
99	357
109	226
110	39
111	41
113	155
123	25
125	55
126	23
127	351
137	53
138	27
139	178
141	38
153	23
154	35
155	617
156	28
167	136
169	22
182	152
