Mass Spectrum: Borine, diethylisopropyl-
Formula: C7H17B
CAS: 98433-59-1
Molecular weight: 112
m/z	intensity
2	3
10	1
11	3
12	5
13	16
14	2
15	12
25	4
26	63
28	15
29	25
36	9
37	35
38	32
39	117
40	293
41	999
42	32
43	16
48	1
49	6
50	18
51	28
52	25
53	78
54	37
55	81
56	7
57	15
61	2
62	1
63	4
64	3
65	6
66	5
67	21
68	150
69	501
70	24
71	2
81	4
82	9
83	31
84	2
111	6
112	21
113	2
