Mass Spectrum: Benzaldehyde, 3,5-dibromo-, thiosemicarbazone
Formula: C8H7Br2N3S
CAS: 98437-50-4
Molecular weight: 335
m/z	intensity
26	2
27	6
28	4
29	4
31	2
33	6
34	4
37	9
38	17
39	15
41	5
42	13
43	999
44	19
45	5
46	2
47	7
48	16
49	8
50	46
51	10
52	7
55	2
57	4
58	4
59	30
60	283
61	26
62	58
63	45
64	8
65	3
66	2
67	2
69	2
70	3
71	2
72	2
73	16
74	97
75	149
76	535
77	20
78	26
79	4
80	5
81	2
82	4
83	2
84	2
85	9
86	20
87	32
88	63
89	45
90	49
91	32
92	3
99	9
100	33
101	20
102	144
103	9
104	7
106	2
107	2
108	2
115	2
116	9
117	33
118	91
119	17
121	2
128	18
129	18
130	4
131	3
133	4
134	2
135	3
141	5
143	10
145	6
149	4
153	20
154	36
155	29
156	37
157	11
158	3
167	39
168	17
169	45
170	37
171	9
172	23
180	24
181	13
182	27
183	13
184	3
195	4
196	48
197	24
198	47
199	21
200	2
212	2
213	3
214	2
215	3
223	2
233	31
234	6
235	61
236	10
237	30
238	5
240	6
241	5
246	2
247	3
248	6
249	33
250	7
251	56
252	5
253	26
254	2
256	2
258	2
259	22
260	41
261	51
262	82
263	36
264	51
265	9
266	6
274	4
275	24
276	22
277	47
278	33
279	26
280	17
281	3
291	6
292	2
293	12
294	3
295	7
296	2
301	2
302	4
303	3
304	10
305	3
306	7
308	2
318	23
319	4
320	46
321	6
322	24
323	3
333	3
334	5
335	116
336	28
337	229
338	40
339	120
340	19
341	8
