Mass Spectrum: 4-Isobutylpyrimidine
Formula: C8H12N2
CAS: 98489-37-3
Molecular weight: 136
m/z	intensity
36	1
37	3
38	10
39	79
40	27
41	65
42	11
43	27
44	2
49	0
50	6
51	11
52	48
53	39
54	11
55	5
56	0
59	1
60	0
61	0
62	0
63	3
64	4
65	16
66	18
67	57
68	8
76	0
77	5
78	3
79	19
80	20
81	12
86	0
91	1
92	4
93	17
94	999
95	61
104	0
105	1
107	7
118	2
119	14
120	10
121	209
122	18
133	1
135	52
136	17
