Mass Spectrum: 2-Ethyl-6-ethylsulfonyl-3(2H)-pyridazinone
Formula: C8H12N2O3S
CAS: 98489-95-3
Molecular weight: 216
m/z	intensity
14	1
15	17
25	1
26	33
27	154
28	53
29	407
30	23
31	1
35	12
37	9
38	69
39	318
40	31
41	84
42	40
43	31
44	240
45	14
46	2
47	2
48	7
49	3
50	3
51	16
52	212
53	57
54	127
55	94
56	13
57	20
58	6
59	7
60	17
61	49
62	2
63	17
64	3
65	14
66	31
67	47
68	53
69	56
70	15
71	20
72	2
73	22
74	2
75	15
76	2
77	84
78	11
79	16
80	349
81	46
82	286
83	21
84	20
85	8
86	8
87	29
88	1
89	91
90	3
91	5
92	4
93	7
94	5
95	70
96	999
97	69
98	13
99	11
100	1
101	2
103	9
104	1
105	2
106	3
107	2
108	3
109	26
110	9
111	6
112	4
113	2
114	1
115	8
116	1
117	1
119	1
121	4
122	4
123	606
124	112
125	20
126	2
127	1
129	8
130	1
131	16
132	1
133	1
134	1
135	2
136	4
137	6
138	2
139	6
140	1
141	1
143	6
144	5
145	1
149	3
150	1
151	2
152	6
153	1
157	2
158	2
159	3
160	160
161	9
162	8
163	1
171	8
172	2
174	2
185	3
187	29
188	3
189	3
191	5
192	1
199	1
201	4
202	1
215	1
216	458
217	55
218	25
219	3
