Mass Spectrum: Cyclohexane-1,2-dimethanol, diacetate
Formula: C12H20O4
CAS: 98516-00-8
Molecular weight: 228
m/z	intensity
27	76
29	8
30	1
31	37
39	60
41	31
42	30
43	900
45	65
46	1
51	3
52	4
53	28
54	33
58	12
59	23
60	23
61	13
63	1
65	18
66	23
67	336
68	70
69	5
70	9
71	15
72	15
73	66
74	8
77	40
78	37
79	301
80	153
81	234
82	91
83	3
84	18
85	2
86	2
87	34
91	60
92	28
93	643
94	74
95	581
96	103
97	59
98	35
99	5
100	4
101	3
103	16
104	4
105	7
106	8
107	99
108	999
109	128
110	27
111	74
114	0
118	3
121	5
122	4
123	8
124	44
125	378
126	102
127	15
185	43
186	6
