Mass Spectrum: Borine, ethylisopropylpropyl-
Formula: C8H19B
CAS: 98544-74-2
Molecular weight: 126
m/z	intensity
2	3
10	1
11	3
12	3
13	10
14	2
15	10
25	5
26	64
27	223
28	13
29	21
36	6
37	24
38	25
39	101
40	279
41	999
42	47
43	17
49	5
50	16
51	29
52	32
53	106
54	68
55	130
56	6
57	5
61	1
62	1
63	3
64	2
65	5
66	5
67	15
68	5
69	6
70	1
71	3
81	7
82	102
83	363
84	21
96	3
97	12
125	4
126	14
127	1
