Mass Spectrum: Borine, ethyldiisopropyl-
Formula: C8H19B
CAS: 98544-73-1
Molecular weight: 126
m/z	intensity
2	2
10	1
11	2
12	3
13	8
14	2
15	9
25	3
26	46
27	170
28	9
29	13
36	5
37	20
38	19
39	73
40	275
41	999
42	42
43	28
49	3
50	12
51	21
52	22
53	70
54	42
55	84
56	5
57	10
61	1
63	2
64	2
65	4
66	5
67	15
68	3
69	4
70	1
71	3
81	6
82	43
83	128
84	8
95	1
96	1
97	4
125	3
126	13
127	1
