Mass Spectrum: N-Nitroacetyl-3,5-dimethylpyrazole
Formula: C7H9N3O3
CAS: 98548-18-6
Molecular weight: 183
m/z	intensity
37	7
39	225
40	81
41	265
42	235
43	40
44	20
46	28
50	11
51	32
52	54
53	37
54	51
55	39
56	17
57	3
58	3
61	2
62	5
63	13
65	79
66	67
67	39
68	82
69	25
70	2
71	2
77	2
79	18
80	24
81	54
82	47
83	9
88	6
92	7
93	4
95	999
96	359
97	25
108	63
109	186
111	155
112	9
113	2
121	2
123	9
124	2
125	2
136	14
137	9
138	7
139	3
142	5
154	2
183	120
184	9
185	1
