Mass Spectrum: Trichloroacetic acid, cyclopentyl ester
Formula: C7H9Cl3O2
CAS: 98547-02-5
Molecular weight: 230
m/z	intensity
26	8
27	42
28	8
29	50
31	2
35	5
36	24
37	1
38	8
39	90
40	21
41	332
42	34
43	19
45	1
47	20
48	3
49	6
50	4
51	7
52	5
53	29
54	5
55	19
56	4
57	18
58	2
61	3
62	1
63	4
65	12
66	9
67	169
68	162
69	999
70	62
71	11
73	1
75	2
76	4
77	3
78	1
79	10
82	64
83	14
84	41
85	73
86	6
87	1
91	1
95	2
96	1
99	2
101	1
103	2
105	3
110	73
111	3
112	48
113	2
114	8
117	193
118	2
119	186
120	2
121	60
123	6
125	3
127	19
128	1
129	12
131	1
139	2
141	3
145	2
146	5
147	2
148	4
150	2
159	5
161	2
163	2
173	7
175	6
177	2
188	6
189	4
190	6
191	4
192	2
193	2
195	22
196	2
197	14
199	2
201	19
202	3
203	19
204	3
205	6
