Mass Spectrum: N(.alpha.)-Benzoyloxycarbonyl-N(.beta.)-trimethylammonio-l-alanine, inner sal
Formula: C14H20N2O4
CAS: 98541-65-2
Molecular weight: 280
m/z	intensity
41	52
42	177
43	153
44	242
45	163
47	7
48	3
49	39
50	99
51	229
52	59
53	29
54	6
55	16
56	18
57	36
58	397
59	226
60	30
61	9
62	42
63	104
64	31
65	227
66	13
67	5
68	3
69	12
70	7
71	29
72	8
73	16
74	21
75	16
76	22
77	312
78	63
79	527
80	47
81	6
82	1
83	5
84	24
85	12
86	34
87	11
88	7
89	243
90	385
91	670
92	60
93	4
94	1
95	3
96	1
97	4
98	4
99	3
100	1
101	2
102	4
103	29
104	44
105	49
106	21
107	411
108	999
109	78
110	6
111	3
112	3
113	5
114	6
115	6
116	1
117	5
118	0
119	1
120	1
121	1
122	2
123	1
124	2
125	7
126	6
127	3
128	3
129	2
130	6
131	9
132	1
133	2
134	1
135	1
136	0
137	1
138	3
139	4
140	4
141	17
142	4
143	0
144	1
145	0
147	0
149	3
151	401
152	42
153	5
154	1
155	2
157	0
176	1
177	0
279	0
280	1
281	0
