Mass Spectrum: N,N-Bis(2-propyl)-2-ethylhexamide
Formula: C14H29NO
CAS: 98580-17-7
Molecular weight: 227
m/z	intensity
36	4
37	0
38	1
39	21
40	6
41	160
42	58
43	494
44	115
45	4
46	1
48	0
49	0
51	0
52	0
53	5
54	6
55	86
56	24
57	770
58	347
59	15
60	2
64	0
65	0
66	0
67	4
68	6
69	26
70	59
71	15
72	44
73	2
77	0
79	0
80	1
81	2
82	5
83	12
84	27
85	8
86	999
87	57
88	4
91	0
94	0
95	0
96	3
97	9
98	12
99	77
100	39
101	35
102	16
103	0
108	0
109	0
110	0
111	0
112	6
113	1
114	62
115	8
116	0
123	0
124	2
125	0
126	4
127	23
128	348
129	75
130	5
131	1
132	1
134	0
136	0
140	3
141	0
142	28
143	12
145	1
152	0
154	1
156	63
157	25
158	2
160	0
167	0
168	1
169	0
170	24
171	219
172	25
183	0
184	507
185	76
188	0
196	0
199	23
200	8
201	0
207	0
212	9
225	0
227	6
