Mass Spectrum: 2-Dimethyl(prop-2-enyl)silyloxypropane
Formula: C8H18OSi
CAS: 98582-95-7
Molecular weight: 158
m/z	intensity
39	65
40	15
41	75
42	15
43	125
44	23
45	145
46	11
47	65
51	10
53	15
55	28
56	15
57	12
58	15
59	105
60	15
61	85
63	15
65	15
67	10
69	20
70	20
71	25
72	15
73	41
74	20
75	999
76	55
77	41
79	15
83	15
85	20
87	11
93	45
95	17
97	15
99	82
100	19
101	65
102	15
103	18
113	10
115	29
116	10
117	385
118	45
119	15
143	49
144	10
