Mass Spectrum: 1,2-Diacetyl-1,2-didemethylthiocolchicine
Formula: C24H25NO7S
CAS: 98599-88-3
Molecular weight: 471
m/z	intensity
41	43
42	108
43	999
44	70
45	197
46	54
47	193
48	135
49	21
50	11
51	11
53	8
54	6
55	22
56	25
57	26
58	14
59	11
60	58
61	8
63	7
64	6
65	7
67	10
69	192
70	10
71	11
72	7
73	10
75	12
77	17
78	19
79	11
81	8
82	6
83	9
84	12
85	20
86	6
87	6
89	5
90	129
91	10
92	6
93	5
94	11
95	7
96	7
97	7
98	8
100	37
101	5
105	5
106	22
107	22
111	6
114	12
115	15
119	19
124	6
126	7
127	10
128	9
129	6
131	74
139	15
140	9
141	17
145	5
149	14
150	10
151	12
152	44
153	26
154	10
155	7
158	5
163	6
164	8
165	20
166	15
167	12
168	10
169	13
170	6
171	8
176	6
177	6
178	8
179	6
180	9
181	23
182	12
183	9
184	13
185	10
186	5
192	8
193	15
194	9
195	12
196	11
197	12
198	7
199	12
200	6
201	6
206	5
207	7
208	10
209	14
210	15
211	11
212	9
213	12
214	8
215	6
219	93
220	15
221	27
222	11
223	10
224	12
225	13
226	15
227	15
228	10
229	10
235	8
236	13
237	34
238	24
239	21
240	15
241	14
242	10
243	7
244	6
250	5
251	30
252	28
253	101
254	31
255	15
256	12
257	12
258	11
259	6
264	25
265	11
266	13
267	23
268	23
269	23
270	14
271	8
272	13
273	12
274	5
279	7
280	39
281	36
282	17
283	16
284	13
285	29
286	11
287	9
288	14
294	10
295	21
296	16
297	18
298	18
299	44
300	151
301	35
302	28
303	6
310	8
311	15
312	15
313	92
314	22
315	10
316	12
322	13
323	6
326	9
327	41
328	231
329	49
330	20
331	5
337	11
338	7
340	20
341	9
342	20
343	7
344	16
345	7
354	11
355	7
359	141
360	31
361	10
369	6
370	191
371	44
372	19
382	12
384	7
386	27
387	53
388	13
389	5
396	24
397	7
401	26
402	7
412	59
413	16
414	16
428	23
429	50
430	14
438	60
439	15
471	148
472	43
473	15
