Mass Spectrum: 7-(Acetylamino)-2-(benzoyloxy)-3-methoxy-10-(methylsulfanyl)-9-oxo-5,6,7,9-tetrahydrobenzo[a]heptalen-1-yl benzoate  #
Formula: C34H29NO7S
CAS: 98599-89-4
Molecular weight: 595
m/z	intensity
51	29
77	276
105	999
106	73
121	113
490	209
508	73
536	328
537	36
562	40
595	142
596	37
