Mass Spectrum: 1-(3-Chloro-2-pyrazinyl)-2-methyl-1-propanone
Formula: C8H9ClN2O
CAS: 98618-80-5
Molecular weight: 184
m/z	intensity
37	5
38	11
39	84
40	19
41	211
42	84
43	999
44	35
45	3
47	3
49	2
50	5
51	40
52	135
53	22
54	5
55	20
56	5
59	3
60	8
61	7
62	58
63	5
64	18
65	3
66	2
67	3
69	6
70	90
71	309
72	14
73	3
76	2
77	10
78	13
79	88
80	9
85	3
86	54
87	17
88	19
89	6
93	3
104	2
105	15
106	3
107	2
113	228
114	184
115	110
116	63
117	11
119	6
121	10
128	42
129	3
130	15
131	28
132	3
141	188
142	30
143	66
144	11
145	3
148	3
149	113
150	11
155	12
156	46
157	8
158	15
165	6
167	9
169	12
171	3
183	2
184	220
185	23
186	65
187	6
