Mass Spectrum: 1-(3-Methoxy-2-pyrazinyl)-2-methyl-1-propanone
Formula: C9H12N2O2
CAS: 98618-81-6
Molecular weight: 180
m/z	intensity
38	19
39	162
40	334
41	246
42	208
43	674
44	22
51	22
52	69
53	85
54	55
55	39
56	23
57	5
58	4
65	9
66	37
67	85
68	76
69	22
70	99
71	78
72	3
77	4
78	16
79	999
80	221
81	159
82	36
83	10
92	3
93	5
94	30
95	23
105	6
106	5
107	8
109	892
110	167
111	51
119	16
121	4
123	18
124	92
131	6
134	2
137	911
138	96
139	8
147	8
149	24
150	5
151	37
152	230
153	20
163	9
165	43
166	3
179	7
180	677
181	77
