Mass Spectrum: 1,5-Bis(2(3H)-thioxo-3-methyl-1,3,4-thiadiazole-5-yl-thio)-2,4-dinitrobenzene
Formula: C12H8N6O4S6
CAS: 98618-43-0
Molecular weight: 492
m/z	intensity
69	373
72	999
73	818
74	302
93	246
94	103
105	383
106	195
120	135
131	91
136	116
152	136
153	36
164	123
166	58
178	44
179	32
184	28
194	44
195	20
196	63
240	206
241	21
242	61
254	62
268	17
269	25
283	16
284	112
285	20
286	16
327	21
373	37
374	50
375	17
376	21
387	28
388	123
389	28
390	28
419	208
420	33
421	40
459	83
460	16
461	21
492	439
493	70
494	124
495	21
