Mass Spectrum: 5-.beta.-Card-20(22)-enolide, 3-.beta.-((2,6-dideoxy-3-O-methyl-D-xylo-hexopyranosyl)oxy)-11-.alpha.,14-dihydroxy-
Formula: C30H46O8
CAS: 98633-61-5
Molecular weight: 534
m/z	intensity
41	423
43	739
45	267
47	4
51	14
53	122
55	487
57	428
58	318
59	382
61	81
65	57
67	352
69	284
71	312
72	30
74	999
75	34
77	105
79	228
81	297
83	164
84	133
85	156
87	502
88	8
89	38
91	172
93	269
95	378
96	31
97	83
98	105
99	15
100	34
101	57
103	21
105	200
107	272
108	50
109	118
111	139
113	457
114	22
115	21
117	31
118	127
119	86
121	137
122	5
123	59
124	17
125	35
126	18
127	9
129	35
130	14
131	75
133	95
135	82
136	19
137	22
141	9
143	62
144	29
145	329
147	120
149	68
150	3
151	14
153	17
155	16
157	33
159	71
160	30
161	42
163	34
165	23
167	10
169	13
171	21
172	10
173	42
175	180
176	20
177	31
179	63
180	5
181	22
183	12
185	26
187	37
189	20
191	13
193	11
195	10
197	13
199	21
201	150
202	18
203	31
205	3
207	11
208	4
209	10
211	12
213	10
215	13
217	21
219	20
223	4
225	9
227	17
229	28
231	6
233	8
241	3
244	77
245	16
255	10
257	4
259	9
261	8
262	4
263	3
269	3
273	10
275	3
281	3
295	7
309	9
337	112
338	29
339	4
354	19
355	180
356	44
372	11
373	128
374	27
391	17
417	22
