Mass Spectrum: N,N-Dimethyl-N'-(3-dimethylamino-2-phenylthioacryloyl)formamidine
Formula: C14H19N3S
CAS: 98661-73-5
Molecular weight: 261
m/z	intensity
12	5
14	9
15	211
16	14
17	45
18	201
26	7
27	36
28	106
29	33
30	52
31	6
32	6
38	6
39	45
40	14
41	68
42	817
43	79
44	419
45	111
46	999
47	39
50	18
51	47
52	19
53	9
54	12
55	21
56	34
57	53
58	193
59	13
60	7
61	6
62	10
63	34
64	9
65	17
66	7
67	10
68	10
69	41
70	19
71	32
72	24
73	48
74	25
75	18
76	31
77	68
78	19
79	9
80	7
81	11
82	17
83	53
84	8
85	25
86	8
87	9
88	26
89	96
90	74
91	77
92	12
93	10
94	6
95	12
96	6
97	9
98	9
99	20
100	12
101	25
102	73
103	68
104	18
105	12
106	8
107	7
108	10
109	28
110	6
111	4
112	7
113	8
114	20
115	444
116	112
117	54
118	18
119	5
120	6
121	29
123	23
125	3
126	3
127	15
128	39
129	28
130	71
131	57
132	19
133	82
134	52
135	20
136	8
137	3
139	3
140	12
141	14
142	26
143	39
144	65
145	27
146	19
147	56
148	17
149	16
150	3
152	7
153	3
154	7
155	16
156	55
157	92
158	83
159	34
160	25
161	8
162	15
163	7
166	5
167	3
168	26
169	15
170	8
171	43
172	53
173	35
174	139
175	29
176	28
177	8
178	3
181	2
182	7
183	114
184	20
185	34
186	22
187	14
188	44
189	41
190	44
191	7
192	2
197	2
198	3
199	6
200	7
201	15
202	7
203	11
204	2
205	3
212	5
213	12
214	7
215	19
216	9
217	59
218	32
219	7
220	2
228	245
229	42
230	4
246	5
261	192
262	33
263	12
264	1
