Mass Spectrum: 3-Methyl-4-(N,3-dimethylphenylhydrazono)isoxazol-5-one
Formula: C12H13N3O2
CAS: 98664-22-3
Molecular weight: 231
m/z	intensity
63	110
65	360
77	270
78	190
89	70
91	999
92	190
104	140
105	410
106	120
118	270
119	670
120	850
121	410
131	50
145	70
146	140
173	50
231	280
