Mass Spectrum: Cyclopropanemethanol, 2-methyl-2-(4-methyl-3-pentenyl)-
Formula: C11H20O
CAS: 98678-70-7
Molecular weight: 168
m/z	intensity
26	6
27	121
28	9
29	138
30	5
31	47
37	2
38	6
39	167
40	39
41	788
42	73
43	231
44	16
45	11
50	8
51	25
52	14
53	131
54	30
55	392
56	124
57	93
58	10
59	42
60	3
62	2
63	8
64	2
65	30
66	19
67	232
68	128
69	999
70	148
71	43
72	8
73	6
74	2
75	8
76	3
77	42
78	11
79	113
80	40
81	364
82	264
83	113
84	68
85	31
86	6
87	2
89	3
91	36
92	11
93	86
94	57
95	146
96	28
97	44
98	22
99	11
100	3
101	1
102	2
103	3
104	3
105	14
106	7
107	108
108	32
109	305
110	52
111	31
112	11
113	3
115	4
116	2
117	2
119	4
120	2
121	30
122	14
123	36
124	18
125	42
126	9
127	33
128	7
129	6
130	2
131	2
132	1
133	2
134	2
135	63
136	14
137	42
138	6
150	26
151	6
152	2
153	9
154	2
167	1
168	7
169	3
