Mass Spectrum: Demecycline
Formula: C21H22N2O8
CAS: 987-02-0
Molecular weight: 430
m/z	intensity
39	11
40	56
41	24
42	168
43	66
44	999
45	56
46	249
55	26
57	41
58	393
59	12
69	17
70	14
71	73
72	48
73	235
74	16
82	17
84	423
85	63
98	102
99	14
100	30
115	36
126	12
127	35
149	19
150	14
152	20
153	15
154	14
170	49
171	10
173	13
181	11
187	16
197	15
200	24
201	12
213	10
221	11
225	11
226	19
227	10
242	15
243	10
299	33
316	29
317	43
350	21
352	15
353	11
370	45
387	110
388	21
395	25
396	23
412	86
413	29
430	79
431	15
