Mass Spectrum: 3-Phenylpropenoic acid, 2',3'-dimethoxy-2-acetamino-
Formula: C13H15NO5
CAS: 98708-99-7
Molecular weight: 265
m/z	intensity
41	75
43	999
58	78
63	81
65	91
69	83
77	78
79	97
91	392
93	107
119	76
134	79
135	187
136	593
137	172
143	173
148	75
149	86
161	269
162	487
163	158
174	88
177	182
178	76
191	685
192	259
194	391
223	724
224	78
265	701
266	81
