Mass Spectrum: 2,4-Diamino-6-[2-[3,4-dichlorophenyl]vinyl]pteridine
Formula: C14H10Cl2N6
CAS: 98747-15-0
Molecular weight: 332
m/z	intensity
42	136
43	999
44	27
45	9
49	7
50	36
51	45
52	13
53	119
54	24
55	23
56	3
61	9
62	37
63	58
64	24
65	20
66	126
67	27
68	41
69	18
70	3
71	8
73	31
74	51
75	69
76	17
77	3
80	27
81	3
82	11
83	5
84	17
85	17
86	19
87	13
88	5
91	28
92	16
93	8
94	3
95	13
96	10
97	8
98	2
99	19
100	11
101	15
102	7
103	2
104	3
108	8
109	6
110	3
111	26
113	36
114	14
115	8
122	12
123	18
124	15
125	24
126	53
127	19
131	8
133	4
134	10
135	46
136	16
137	2
138	7
140	9
141	2
145	7
146	10
147	8
148	12
149	8
150	5
151	18
152	13
160	7
161	17
162	43
163	16
164	20
165	15
166	17
167	6
170	5
172	12
173	11
174	39
175	13
176	13
177	7
183	31
184	3
185	30
186	17
187	64
188	6
192	5
193	11
194	8
195	9
196	15
197	21
198	9
199	6
200	2
201	6
202	12
203	6
204	6
208	6
211	3
212	3
213	11
221	6
223	9
224	2
226	6
227	17
228	9
234	2
235	11
236	12
237	8
238	6
246	2
253	10
254	7
255	23
256	7
257	6
262	10
263	6
264	13
265	3
266	6
275	5
280	5
287	13
288	2
289	12
295	15
296	8
297	34
298	3
299	2
304	29
306	10
314	11
315	26
316	18
328	2
331	20
332	186
333	76
334	133
335	46
336	19
337	3
