Mass Spectrum: Methyl 4-phenyl-3-hydroxybutanoate
Formula: C11H14O3
CAS: 98753-06-1
Molecular weight: 194
m/z	intensity
33	132
39	157
43	684
59	134
61	486
65	474
71	626
91	972
92	905
103	999
117	323
121	191
145	208
176	527
