Mass Spectrum: Zinc, bis(.beta.-methylphenethyl)-
Formula: C18H22Zn
CAS: 98764-98-8
Molecular weight: 302
m/z	intensity
26	10
27	47
28	2
29	3
34	0
37	2
38	9
39	99
40	7
41	211
42	9
43	1
44	0
45	1
46	0
47	0
49	1
50	33
51	111
52	31
53	13
54	0
55	1
57	8
58	11
59	5
60	0
61	2
62	9
63	30
64	9
65	52
66	6
67	1
68	4
69	2
70	8
71	0
72	0
73	4
74	10
75	13
76	17
77	209
78	124
79	104
80	7
81	2
82	1
83	1
85	0
86	2
87	3
88	1
89	17
90	7
91	999
92	83
93	4
97	0
98	0
101	4
102	21
103	131
104	86
105	417
106	39
107	1
109	0
110	0
111	1
112	1
113	2
114	2
115	54
116	18
117	121
118	228
119	578
120	323
121	28
122	1
128	0
131	1
132	0
141	11
142	2
143	7
144	2
145	4
146	1
147	0
150	0
152	0
153	1
154	6
155	1
159	0
165	1
167	2
168	1
169	1
171	0
178	0
179	0
181	0
182	7
183	47
184	31
185	29
186	23
187	21
188	11
189	1
190	0
207	0
209	0
218	2
219	0
220	1
221	0
222	1
232	0
234	0
236	0
238	0
245	5
246	0
247	3
248	1
249	2
250	0
259	1
260	2
261	1
262	1
263	0
264	1
273	0
287	7
288	1
289	5
290	1
291	3
292	0
300	0
301	2
302	70
303	14
304	40
305	14
306	29
307	5
308	1
