Mass Spectrum: 2-(4-Benzylphenoxy)-N,N-diethylethanamine
Formula: C19H25NO
CAS: 98774-23-3
Molecular weight: 283
m/z	intensity
18	1
27	4
28	9
29	14
30	21
39	3
41	3
42	24
43	4
44	23
45	1
50	2
51	5
52	1
53	1
54	3
55	4
56	33
57	15
58	39
59	1
62	1
63	4
64	1
65	6
68	1
69	1
70	11
71	8
72	9
73	1
74	1
75	1
76	3
77	11
78	4
79	1
82	2
84	12
86	999
87	64
88	2
89	6
90	3
91	32
92	3
98	1
99	3
100	14
101	2
102	3
103	1
105	1
106	1
107	3
113	1
114	1
115	11
116	2
119	1
120	1
126	2
127	6
128	13
129	4
134	4
139	4
140	1
141	3
150	1
151	5
152	36
153	17
154	6
155	6
156	1
163	3
164	4
165	48
166	14
167	12
168	3
176	1
177	1
178	1
181	2
182	1
183	3
184	2
196	1
197	1
210	1
250	1
268	5
269	1
282	2
283	9
284	2
