Mass Spectrum: Pyrimidine, 4,6-dimethoxy-5-acetyl-
Formula: C8H10N2O3
CAS: 98792-85-9
Molecular weight: 182
m/z	intensity
41	13
42	999
43	170
44	14
45	1
50	6
51	8
52	22
53	8
54	11
55	5
56	5
57	3
58	34
59	4
64	2
65	2
66	7
67	31
68	22
69	2
70	6
71	4
77	2
78	2
79	2
80	20
81	7
82	35
83	12
91	1
92	1
93	2
94	16
95	3
96	3
97	3
98	4
107	1
108	2
109	4
110	8
111	1
112	3
113	1
114	3
121	2
122	1
123	3
124	6
125	1
126	3
136	2
137	19
138	2
139	8
140	3
150	2
151	6
152	2
153	3
167	999
168	91
169	10
181	2
182	123
183	12
184	1
