Mass Spectrum: Cholest-7-en-6-one, 3-(acetyloxy)-, (3.beta.,5.alpha.)-
Formula: C29H46O3
CAS: 988-19-2
Molecular weight: 442
m/z	intensity
41	168
42	26
43	402
44	26
45	26
53	26
55	207
56	26
57	103
60	13
65	13
67	64
68	26
69	103
70	2
71	6
72	1
73	1
77	64
78	64
79	116
80	26
81	168
82	39
83	103
84	13
85	26
91	233
92	51
93	233
94	389
95	999
96	90
97	51
103	13
104	13
105	18
106	64
107	129
108	39
109	168
110	155
111	18
112	3
113	2
114	1
115	18
116	10
117	41
118	15
119	75
120	66
121	93
122	32
123	46
124	9
125	5
126	1
127	5
128	14
129	27
130	14
131	54
132	19
133	80
134	59
135	42
136	11
137	11
138	3
139	13
140	2
141	11
142	9
143	23
144	11
145	48
146	22
147	55
148	131
149	49
150	6
151	5
152	2
153	5
154	2
155	13
156	6
157	24
158	10
159	61
160	18
161	51
162	16
163	19
164	3
165	5
166	2
167	5
168	3
169	7
170	3
171	15
172	9
173	51
174	20
175	120
176	23
177	9
178	2
179	2
180	1
181	7
182	2
183	9
184	3
185	16
186	7
187	20
188	16
189	10
190	3
191	6
192	1
193	6
194	2
195	5
196	2
197	7
198	3
199	18
200	7
201	14
202	5
203	6
204	1
205	1
206	2
207	5
208	9
209	5
210	2
211	5
212	2
213	14
214	11
215	19
216	10
217	5
218	1
219	2
220	1
221	2
222	1
223	3
224	2
225	7
226	3
227	22
228	10
229	26
230	6
231	2
232	2
233	2
234	1
235	40
236	6
237	2
239	2
240	1
241	11
242	24
243	76
244	18
245	9
246	2
247	2
248	2
249	1
251	6
252	2
253	2
254	2
255	5
256	5
257	2
259	2
260	5
261	2
267	2
268	2
269	54
270	14
271	3
273	2
274	2
275	2
276	3
281	1
282	1
283	2
284	1
285	2
286	1
287	6
288	19
289	10
290	3
295	2
297	3
298	1
299	2
300	1
301	1
302	5
303	15
304	5
311	2
312	2
313	3
314	5
315	5
316	6
317	2
327	5
328	20
329	51
330	13
331	3
339	5
340	2
341	2
353	2
354	9
355	3
357	2
367	19
368	6
370	2
371	2
381	3
382	45
383	18
384	3
399	5
400	2
427	11
428	3
441	3
442	32
443	11
444	2
