Mass Spectrum: Spiro[bicyclo[2.2.1]hept-5-ene-2,2'-[1,3]dithiolane]
Formula: C9H12S2
CAS: 98816-45-6
Molecular weight: 184
m/z	intensity
39	50
40	20
41	10
42	10
45	40
46	7
51	20
52	7
53	10
58	70
59	40
60	30
61	10
63	10
64	10
65	40
66	110
67	8
69	10
75	9
77	30
78	9
79	40
80	20
84	6
85	60
90	130
91	30
92	10
97	20
105	8
117	20
118	999
119	80
120	100
121	10
123	10
156	40
184	100
185	10
186	10
