Mass Spectrum: Spiro[1,3-dioxolane-2,3'-tricyclo[3.2.0.0(2,7)]heptane]
Formula: C9H12O2
CAS: 98816-48-9
Molecular weight: 152
m/z	intensity
38	10
39	120
40	30
41	40
42	360
43	140
44	10
45	20
50	20
51	40
52	30
53	50
54	10
55	20
63	10
65	50
66	110
67	10
68	20
73	7
77	70
78	20
79	120
80	40
81	30
82	8
86	999
87	50
91	70
92	9
93	8
99	7
107	10
108	8
125	20
137	8
151	6
152	5
