Mass Spectrum: 4-[2-(2-Propenyl)-1,3-dioxolan-2-yl]-1H-pyrazole
Formula: C9H12N2O2
CAS: 98816-47-8
Molecular weight: 180
m/z	intensity
38	20
39	110
40	40
41	70
42	10
43	10
45	7
51	8
52	10
53	20
54	9
63	6
65	20
66	10
67	20
68	50
69	10
80	10
81	10
92	10
93	9
94	10
95	999
96	50
113	6
119	10
135	8
138	7
139	870
140	60
141	5
