Mass Spectrum: 6-Ethyl-6-hydroxy-5,6,7,8-tetrahydro-1,4-naphthoquinone
Formula: C12H14O3
CAS: 98828-57-0
Molecular weight: 206
m/z	intensity
57	999
77	280
91	170
103	120
107	130
121	170
131	170
135	110
148	700
149	710
159	110
177	770
188	40
189	30
206	300
