Mass Spectrum: 1,1-Diformyl-8,8-dichloroocta-1,3,5,7-tetraene
Formula: C10H8Cl2O2
CAS: 98834-48-1
Molecular weight: 230
m/z	intensity
31	14
32	40
35	41
36	137
37	52
38	109
39	393
40	43
41	92
42	13
43	49
44	15
45	15
47	31
49	39
50	308
51	667
52	145
53	112
54	17
55	171
56	32
57	45
60	22
61	63
62	110
63	222
64	49
65	154
66	61
67	29
68	35
69	40
70	13
71	22
72	17
73	188
74	149
75	274
76	95
77	769
78	274
79	154
80	22
81	45
82	21
83	47
84	25
85	92
86	40
87	70
88	15
89	68
90	21
91	107
92	24
93	18
94	15
95	26
96	10
97	53
98	36
99	120
100	60
101	274
102	496
103	999
104	171
105	171
106	63
107	43
108	20
109	145
110	21
111	137
112	43
113	96
114	43
115	80
116	17
117	61
118	27
119	58
120	14
121	24
122	18
123	23
124	14
125	64
126	10
127	31
128	24
129	33
130	25
131	564
132	349
133	43
134	12
135	31
136	42
137	239
138	100
139	236
140	42
141	64
142	10
147	29
148	14
149	188
150	27
151	57
152	13
153	16
157	16
158	16
159	333
160	67
161	15
162	17
165	107
166	50
167	205
168	37
169	64
173	43
174	11
175	31
176	11
177	23
185	15
186	56
187	11
193	20
194	31
195	359
196	52
197	113
198	15
201	32
202	42
203	24
230	171
231	24
232	114
233	15
234	20
