Mass Spectrum: Propanedioic acid, dimethyl-, bis(tert-butyldimethylsilyl) ester
Formula: C17H36O4Si2
CAS: 98830-31-0
Molecular weight: 360
m/z	intensity
39	31
40	1
41	220
42	72
43	44
44	12
45	107
46	6
47	55
48	2
52	3
53	5
55	37
56	22
57	116
58	50
59	111
60	15
61	20
62	1
66	48
69	82
70	64
71	9
73	999
74	90
75	273
76	17
77	15
81	2
83	21
84	2
85	16
86	3
87	4
89	1
97	3
99	18
100	7
101	12
102	2
103	5
105	2
111	7
113	5
115	60
116	8
117	14
118	2
119	6
123	37
129	44
130	5
131	11
133	71
134	8
135	6
141	2
143	51
144	22
145	17
147	366
148	58
149	51
150	5
151	2
157	3
159	2
169	3
171	2
173	8
175	2
185	4
186	2
189	180
190	35
191	13
203	19
204	15
205	4
217	4
219	2
231	5
245	2
247	71
248	15
249	6
259	27
260	15
261	5
281	4
289	2
301	1
303	296
304	67
305	29
306	4
345	17
346	5
