Mass Spectrum: 1,1-Diformyl-6,6-dichlorohexa-1,3,5-triene
Formula: C8H6Cl2O2
CAS: 98834-97-0
Molecular weight: 204
m/z	intensity
26	23
27	83
29	162
35	17
36	74
37	53
38	95
39	113
40	14
43	12
47	14
49	30
50	194
51	341
52	101
53	53
54	9
55	47
56	29
57	9
60	20
61	44
62	38
63	47
65	27
66	21
70	16
72	14
73	122
74	78
75	215
76	41
77	999
78	116
79	14
80	24
81	20
83	12
84	21
85	83
86	25
87	56
88	9
89	17
94	14
95	13
99	18
101	16
105	74
106	18
107	18
111	233
112	118
113	287
114	51
115	78
119	27
122	16
123	28
124	11
125	13
133	20
139	30
140	21
141	201
142	23
143	63
147	68
148	9
149	47
159	13
169	386
170	36
171	123
172	11
175	59
176	109
177	45
178	67
179	11
180	11
204	98
205	12
206	63
207	8
208	13
