Mass Spectrum: Ethanol, 2-[2-(4-pyridyl)ethylamino]-
Formula: C9H14N2O
CAS: 98841-27-1
Molecular weight: 166
m/z	intensity
33	32
34	3
36	8
37	7
38	21
39	97
40	58
41	36
42	106
43	82
44	158
45	851
46	448
47	9
48	0
50	55
51	115
52	70
53	35
54	23
56	349
57	12
59	1
60	4
61	11
62	7
63	18
64	11
65	53
66	19
68	51
70	0
72	4
74	661
76	38
77	99
78	104
79	50
80	19
81	1
90	7
93	999
94	68
95	1
98	5
102	1
104	76
105	152
106	383
107	33
108	11
117	1
118	8
119	5
120	5
121	5
131	1
132	4
133	11
135	289
136	24
147	0
165	1
