Mass Spectrum: .beta.-d-Glucopyranoside, nonyl 1-thio-
Formula: C15H30O5S
CAS: 98854-15-0
Molecular weight: 322
m/z	intensity
23	0
25	4
26	21
27	238
28	26
29	429
30	16
31	194
33	1
34	3
35	11
36	0
37	3
38	6
39	117
40	24
41	617
42	95
43	532
44	35
45	268
46	17
47	102
48	7
49	6
50	3
51	7
52	4
53	67
54	26
55	307
56	133
57	413
58	21
59	47
60	283
61	365
62	12
63	14
65	7
66	4
67	39
68	30
69	388
70	110
71	168
72	35
73	711
74	70
75	31
76	46
77	12
78	4
79	11
80	10
81	94
82	20
83	86
84	32
85	999
86	64
87	590
88	39
89	65
90	12
91	241
92	8
93	4
94	1
95	7
96	10
97	288
98	199
99	157
100	16
101	87
102	27
103	145
104	8
105	6
106	0
107	1
108	1
109	105
110	11
111	26
112	3
113	18
114	7
115	96
116	205
117	25
118	3
119	3
120	0
123	1
124	1
125	4
126	33
127	611
128	67
129	21
130	2
131	7
132	1
133	10
134	0
135	0
137	0
139	2
140	0
141	1
142	1
143	4
144	111
145	760
146	53
147	10
148	0
149	0
151	0
154	0
155	2
156	0
157	10
158	44
159	45
160	22
161	6
162	31
163	79
164	5
165	0
167	0
169	3
170	0
171	6
172	3
173	21
174	3
175	1
177	0
178	5
179	3
183	0
184	0
185	0
186	0
187	26
188	2
189	24
190	3
191	0
194	0
195	9
196	0
197	0
199	0
201	7
202	49
203	13
204	4
205	5
206	0
207	0
213	5
214	1
215	6
216	1
227	0
229	0
231	16
232	5
233	0
237	0
239	0
240	0
243	0
244	0
245	12
246	2
247	0
253	0
255	1
258	0
267	0
268	0
269	3
270	0
271	0
273	19
274	3
275	0
281	0
286	1
287	0
304	4
305	1
322	0
