Mass Spectrum: Pentadecanoic acid, 2-hydroxy-1-(hydroxymethyl)ethyl ester
Formula: C18H36O4
CAS: 98863-01-5
Molecular weight: 316
m/z	intensity
25	5
26	11
27	145
28	49
29	398
30	16
31	93
33	2
36	1
37	5
38	6
39	82
40	28
41	688
42	177
43	999
44	122
45	106
46	11
47	4
49	4
50	2
51	5
52	5
53	39
54	70
55	701
56	293
57	851
58	67
59	31
60	129
61	111
62	8
63	7
64	4
65	9
66	9
67	126
68	65
69	363
70	98
71	354
72	41
73	224
74	599
75	159
76	4
77	1
78	7
79	32
80	23
81	123
82	55
83	287
84	481
85	229
86	24
87	143
88	11
89	16
90	2
91	12
92	6
93	50
94	18
95	140
96	51
97	225
98	655
99	85
100	27
101	49
102	18
103	15
104	5
105	3
106	2
107	21
108	18
109	86
110	23
111	116
112	209
113	39
114	8
115	36
116	136
117	25
118	2
119	5
120	2
121	23
122	8
123	38
124	22
125	45
126	38
127	13
128	9
129	98
130	7
131	8
132	8
133	3
134	222
135	34
136	10
137	20
138	10
139	16
140	20
141	7
142	4
143	49
144	10
145	6
146	2
147	37
148	7
149	11
150	2
151	13
152	12
153	9
154	44
155	4
156	2
157	12
158	4
160	1
161	1
162	1
163	4
164	1
165	6
166	2
167	8
168	46
169	9
170	3
171	19
172	8
173	1
175	1
176	7
177	4
178	4
179	5
180	5
181	9
182	10
183	4
185	31
186	6
187	5
190	5
191	5
193	1
194	1
195	6
196	3
199	32
200	5
201	1
205	2
206	3
207	3
208	2
209	2
211	1
213	27
214	3
215	1
222	5
223	5
224	24
225	422
226	68
227	14
228	1
234	1
239	1
241	6
242	34
243	120
244	22
245	1
255	12
256	28
257	8
269	5
273	2
285	51
286	11
298	3
299	1
