Mass Spectrum: Benzenesulfonic acid, 4-methyl-, 2-cyclopenten-1-ylidenehydrazide
Formula: C12H14N2O2S
CAS: 98877-48-6
Molecular weight: 250
m/z	intensity
26	5
27	61
28	25
29	50
30	2
31	4
37	8
38	26
39	309
40	20
41	463
42	40
43	13
44	0
45	28
47	1
48	7
49	3
50	34
51	85
52	26
53	53
54	14
55	9
56	0
58	1
59	1
60	3
61	10
62	28
63	86
64	23
65	728
66	487
67	241
68	41
69	11
70	2
71	2
73	2
74	8
75	6
76	4
77	76
78	175
79	72
80	36
81	4
82	3
83	10
84	0
85	1
86	6
87	5
88	1
89	71
90	34
91	547
92	318
93	33
94	589
95	999
96	71
97	16
98	1
104	1
105	1
106	14
107	90
108	60
109	4
110	1
111	13
112	1
113	0
115	3
119	0
121	10
122	7
123	9
124	16
125	1
126	0
127	1
128	2
129	2
137	0
139	124
140	38
141	9
142	7
143	2
144	1
154	2
155	11
156	257
157	50
158	17
159	3
171	1
184	1
185	4
186	11
187	2
250	151
251	29
252	11
253	1
