Mass Spectrum: 4,7-Ethanoindene-5,6-dicarboxylic acid, 1-(2-methoxyethoxy)methoxy-7a-methyl-9-oxo-octahydro-
Formula: C18H26O8
CAS: 98921-89-2
Molecular weight: 370
m/z	intensity
27	2
29	56
30	4
31	51
33	1
36	0
39	8
40	1
41	19
44	26
45	87
46	2
47	0
50	0
51	3
52	2
53	11
54	2
55	14
56	1
57	2
59	729
60	27
61	1
63	1
64	0
65	12
66	7
67	7
68	3
69	2
70	0
71	1
72	0
73	5
74	1
75	0
76	0
77	25
78	8
79	25
80	12
81	24
82	7
83	1
84	0
85	0
86	0
87	0
88	3
89	999
90	61
91	97
92	28
93	23
94	5
95	11
96	2
97	4
98	2
99	1
100	0
102	1
103	8
104	6
105	69
106	11
107	6
108	3
109	4
110	1
111	1
113	1
114	0
115	22
116	5
117	19
118	8
119	12
120	2
121	6
122	3
123	1
124	0
125	0
126	0
127	1
128	3
129	5
130	5
131	30
132	11
133	29
134	5
135	5
136	1
137	1
138	0
139	2
140	0
141	0
142	0
143	2
144	2
145	16
146	5
147	7
148	3
149	7
150	3
151	1
152	0
153	0
155	4
156	1
157	1
158	1
159	3
160	1
161	5
162	2
163	3
164	1
165	1
166	1
167	0
171	1
172	0
173	6
174	4
175	3
176	2
177	4
178	1
179	0
180	0
182	0
183	0
185	0
186	0
187	0
188	0
189	1
190	2
191	15
192	3
193	1
194	0
199	0
200	1
201	4
202	1
203	0
204	1
205	1
206	0
207	0
208	0
209	0
217	1
218	3
219	22
220	5
221	1
222	0
228	0
229	0
231	0
232	0
234	1
235	0
236	0
237	0
245	0
246	5
247	55
248	11
249	1
250	1
251	0
260	0
261	0
262	11
263	3
264	4
265	1
266	0
276	3
277	3
278	1
279	0
280	0
281	0
290	0
292	1
293	0
294	0
295	0
307	0
309	0
320	2
321	0
322	1
324	0
352	23
353	4
354	1
