Mass Spectrum: 1,2,4-Triazolo[1,5-a]pyrimidine-2-sulfonamide, 5,7-dimethyl-N-(2-methylphenyl)-
Formula: C14H15N5O2S
CAS: 98936-80-2
Molecular weight: 317
m/z	intensity
36	1
37	2
38	13
39	104
40	32
41	28
42	34
43	5
44	4
45	0
48	7
50	16
51	53
52	52
53	61
54	39
55	7
56	0
57	1
58	0
59	1
60	0
62	4
63	18
64	23
65	52
66	49
67	123
68	39
69	3
70	2
71	0
73	0
74	2
75	3
77	296
78	140
79	155
80	46
81	8
82	11
83	4
84	1
85	0
87	0
89	12
90	5
91	26
92	16
93	28
94	5
95	7
96	8
97	1
98	0
99	0
102	4
104	159
106	999
107	187
108	46
109	18
110	1
111	0
112	0
113	0
114	0
115	0
116	0
117	1
118	3
119	6
120	32
121	31
123	55
124	39
125	4
126	1
127	1
129	7
130	14
131	33
132	5
133	6
134	5
135	1
136	8
137	1
138	2
139	0
140	0
142	0
143	1
145	25
146	69
148	357
149	97
150	6
152	1
153	0
154	0
155	2
156	0
157	0
158	1
159	0
160	0
161	0
162	3
164	0
167	2
168	1
169	4
170	2
171	5
172	3
173	2
174	0
175	0
180	1
181	0
182	1
183	1
184	5
185	1
186	1
187	1
193	0
194	0
195	3
196	10
197	5
198	4
199	5
200	1
201	2
208	0
209	1
210	7
211	25
212	10
213	8
214	1
221	0
222	0
223	1
224	1
225	10
226	3
227	1
235	3
236	4
237	121
238	111
239	17
240	1
246	0
250	1
252	190
253	251
254	36
255	2
286	0
302	0
303	5
304	0
317	137
318	23
319	7
320	0
