Mass Spectrum: 4-Pyridinecarbaldehyde 4-ethyl-3-thiosemicarbazone
Formula: C9H12N4S
CAS: 98954-06-4
Molecular weight: 208
m/z	intensity
14	1
15	6
16	1
25	1
26	14
27	55
28	108
29	146
30	66
31	2
32	6
33	3
34	3
35	7
36	62
37	7
38	33
39	51
40	14
41	25
42	64
43	244
44	827
45	47
46	5
47	7
48	16
49	5
50	61
51	219
52	54
53	17
54	9
55	22
56	7
57	8
58	6
59	53
60	587
61	99
62	34
63	63
64	61
65	58
66	30
67	34
68	10
69	102
70	11
71	180
72	10
73	3
74	18
75	19
76	75
77	62
78	217
79	120
80	42
81	6
82	2
83	4
84	2
85	4
86	10
87	16
88	193
89	10
90	9
91	37
92	136
93	92
94	95
95	8
96	2
97	4
98	3
99	1
100	1
101	9
102	81
103	327
104	229
105	182
106	127
107	999
108	79
109	4
110	3
111	3
112	1
113	1
117	1
118	4
119	29
120	100
121	112
122	16
123	11
124	3
125	1
129	1
130	83
131	8
132	9
133	5
134	1
135	2
136	5
137	7
138	2
139	3
146	1
147	3
148	1
149	3
151	1
162	3
163	95
164	21
165	14
166	3
167	1
174	2
175	9
176	3
178	4
179	4
180	1
191	2
193	3
205	8
206	14
207	13
208	917
209	116
210	45
211	5
