Mass Spectrum: 5,5'-Propylenebis[(1H-1,2,4-triazol-3-yl)amine]
Formula: C7H12N8
CAS: 98962-23-3
Molecular weight: 208
m/z	intensity
36	8
37	8
38	35
39	58
40	6
41	308
42	230
43	562
44	27
48	9
50	9
51	21
52	27
53	44
54	116
55	113
56	108
57	249
58	111
59	6
60	8
64	5
65	13
66	20
67	108
69	71
70	29
71	15
76	4
77	7
78	2
79	4
81	21
82	13
83	18
84	19
85	11
91	4
93	1
94	10
95	76
96	11
97	96
98	829
99	41
100	3
101	1
104	1
110	7
111	999
112	58
113	13
114	2
119	1
125	1
133	1
151	9
152	21
153	2
154	1
208	43
209	6
210	1
