Mass Spectrum: 3,10-Dioxa-2,11-disiladodeca-5,7-diene, 2,2,11,11-tetramethyl-
Formula: C12H26O2Si2
CAS: 98992-85-9
Molecular weight: 258
m/z	intensity
24	0
26	5
27	34
29	13
30	0
31	8
34	0
37	2
38	5
39	42
40	4
41	24
42	8
43	49
44	18
45	118
46	8
47	94
48	3
49	4
50	10
51	17
52	15
53	15
54	3
55	6
56	2
57	7
58	10
59	43
60	10
61	25
62	2
63	6
64	1
65	16
66	33
67	20
68	4
69	2
70	2
71	4
72	13
73	999
74	86
75	742
76	53
77	64
78	42
79	96
80	43
81	10
82	1
83	1
84	0
85	4
86	0
87	3
88	1
89	4
90	2
91	3
92	2
93	2
94	5
95	6
96	2
97	3
98	1
99	8
100	1
101	7
102	1
103	87
104	7
105	2
108	0
109	2
111	11
112	1
113	2
114	6
115	2
116	3
117	2
118	0
119	1
121	0
123	4
124	1
125	10
126	1
127	10
129	25
130	2
131	6
132	1
133	10
134	2
135	1
136	0
137	2
139	4
140	3
141	1
142	22
143	3
144	1
147	158
148	23
149	12
150	1
151	11
152	0
153	20
154	4
155	136
156	21
157	5
161	0
163	3
166	4
167	27
168	179
169	31
170	12
171	1
191	8
192	1
193	0
204	1
217	1
243	5
244	2
245	0
256	4
257	1
258	8
259	1
260	1
