Mass Spectrum: 1-Lactoyl-4-methylpiperazine
Formula: C8H16N2O2
CAS: 98998-54-0
Molecular weight: 172
m/z	intensity
42	541
43	533
44	197
45	209
46	6
47	5
48	2
49	27
51	10
52	3
53	2
54	38
55	50
56	372
57	180
58	929
59	38
60	4
63	1
64	0
67	2
68	12
69	2
70	999
71	164
72	69
73	12
74	2
77	0
79	0
80	1
81	4
82	21
83	244
84	57
85	34
86	73
87	5
88	3
91	0
95	5
96	0
97	44
98	43
99	590
100	145
101	160
102	12
103	1
104	1
105	0
109	0
110	1
111	3
112	84
113	81
114	41
115	39
116	14
117	1
118	4
124	0
125	4
127	153
128	83
129	22
130	23
131	2
132	2
136	0
137	0
142	1
143	1
144	0
146	4
147	18
148	2
153	2
154	0
155	4
157	71
158	5
159	0
169	0
170	4
171	22
172	509
173	134
174	13
175	0
