Mass Spectrum: Benzeneacetonitrile, .alpha.-(.beta.-D-glucopyranosyloxy)-, (R)-
Formula: C14H17NO6
CAS: 99-18-3
Molecular weight: 295
m/z	intensity
43	120
44	190
57	150
60	130
61	110
69	230
73	210
89	110
90	70
91	50
116	560
117	999
118	90
133	80
