Mass Spectrum: Allantoic acid
Formula: C4H8N4O4
CAS: 99-16-1
Molecular weight: 176
m/z	intensity
12	1
14	1
15	4
16	86
17	282
18	250
19	1
26	1
27	4
28	48
29	13
30	4
31	5
32	2
39	2
41	6
42	35
43	172
44	999
45	14
46	3
55	2
56	1
57	4
60	657
61	24
62	2
65	4
66	9
67	2
69	2
70	1
71	3
