Mass Spectrum: 2,6-Dihydroxyisonicotinic acid
Formula: C6H5NO4
CAS: 99-11-6
Molecular weight: 155
m/z	intensity
25	8
26	18
27	25
29	23
33	5
36	8
37	72
38	206
39	665
40	189
41	13
42	125
43	105
44	45
45	74
47	5
49	4
50	6
51	10
52	21
53	37
54	27
55	52
56	28
57	5
63	7
64	9
65	25
66	68
67	195
69	76
70	44
71	5
72	3
80	4
81	9
82	8
83	11
84	509
85	22
86	3
92	3
93	6
109	8
110	45
111	8
112	999
113	54
114	8
127	43
128	4
129	3
137	9
138	24
155	321
156	25
157	3
