Mass Spectrum: N-Acetyl-DL-leucine
Formula: C8H15NO3
CAS: 99-15-0
Molecular weight: 173
m/z	intensity
15	74
25	1
26	8
27	99
28	169
29	77
30	255
31	8
32	7
38	5
39	65
40	16
41	168
42	102
43	734
44	375
45	28
46	13
50	3
51	5
52	4
53	15
54	10
55	33
56	41
57	127
58	10
59	17
60	105
61	8
65	2
66	2
67	11
68	30
69	32
70	117
71	39
72	22
73	24
74	212
75	50
76	3
77	1
78	1
79	1
80	1
81	5
82	6
83	5
84	37
85	44
86	999
87	60
88	59
89	5
95	4
96	18
97	8
98	5
99	323
100	17
101	5
102	2
110	1
111	3
112	54
113	14
114	23
115	9
116	39
117	359
118	18
119	3
126	2
127	6
128	400
129	61
130	42
131	5
132	2
137	1
140	2
144	2
153	1
155	6
156	3
158	13
173	38
174	5
175	1
