Mass Spectrum: 4H-Pyran-2,6-dicarboxylic acid, 4-oxo-
Formula: C7H4O6
CAS: 99-32-1
Molecular weight: 184
m/z	intensity
41	203
42	66
44	42
45	181
49	22
50	7
52	7
53	298
54	22
55	20
66	16
69	999
70	56
71	70
84	6
95	37
111	14
128	48
139	161
156	262
157	6
167	25
184	327
185	41
