Mass Spectrum: .beta.-Alanine, N-(2-carboxyethyl)-N-nitro-
Formula: C6H10N2O6
CAS: 99-69-4
Molecular weight: 206
m/z	intensity
35	0
36	5
38	3
39	12
41	111
42	999
43	290
44	259
45	405
46	94
47	5
48	1
50	0
51	0
52	1
53	9
54	94
55	614
56	793
57	93
58	165
59	8
60	51
61	4
64	2
66	0
67	4
68	15
69	9
70	59
71	17
72	22
73	355
74	121
75	5
76	0
78	0
79	0
80	1
81	1
82	33
83	69
84	24
85	3
86	9
87	19
88	19
89	1
91	0
92	0
94	0
95	2
96	8
97	4
98	16
99	6
100	341
101	90
102	17
103	0
104	0
105	0
107	0
108	0
109	0
110	1
111	4
112	1
113	26
114	62
115	11
116	4
117	34
118	3
119	0
120	0
121	0
122	0
123	0
124	5
126	0
127	0
128	0
129	0
130	0
131	4
132	0
133	0
134	0
135	0
136	0
137	0
138	0
139	0
140	1
141	5
142	210
143	15
144	0
145	0
146	0
147	110
148	5
152	0
153	0
155	0
157	0
158	0
159	10
160	74
161	17
162	1
165	0
166	0
168	0
176	0
183	0
189	0
