Mass Spectrum: 1-Methoxyethanimine, N-acetyl-
Formula: C5H9NO2
CAS: 99028-43-0
Molecular weight: 115
m/z	intensity
25	1
26	10
27	20
28	5
29	43
30	30
31	23
33	1
36	0
37	1
38	4
39	8
40	25
41	41
42	274
43	999
44	40
45	45
46	0
49	0
50	0
51	2
52	2
53	0
54	3
55	3
56	11
57	7
58	42
59	29
60	33
61	1
62	0
64	0
65	0
66	0
67	1
68	1
69	4
70	8
71	0
72	11
73	68
74	47
75	2
76	0
77	0
78	0
79	1
80	0
81	1
82	6
83	4
84	1
85	11
86	2
87	9
88	1
89	0
90	0
91	1
92	0
93	0
94	0
95	1
96	0
97	0
98	0
99	1
100	763
101	42
102	5
103	0
104	0
105	0
106	0
107	0
108	0
109	0
110	0
111	0
112	0
114	0
115	100
116	5
117	0
