Mass Spectrum: 7-Amino-4-chloro-3-[(2-phenyl)ethoxy]-1H-2-benzopyran-1-one
Formula: C17H14ClNO3
CAS: 99033-28-0
Molecular weight: 315
m/z	intensity
37	2
38	12
39	24
40	151
41	14
42	2
43	6
44	47
45	4
46	0
48	0
49	1
50	24
51	52
52	19
53	8
54	3
55	5
56	2
57	7
58	0
59	0
60	1
61	3
62	8
63	18
64	5
65	25
66	1
67	2
68	1
69	2
70	3
71	2
72	0
73	2
74	13
75	26
76	24
77	112
78	47
79	98
80	6
81	1
82	1
83	1
84	2
85	3
86	1
87	2
88	0
89	6
90	10
91	43
92	12
93	1
95	0
96	0
97	3
98	0
99	9
100	2
101	5
102	21
103	86
104	103
105	999
106	94
107	3
109	1
110	2
111	5
112	2
113	2
114	0
115	0
116	0
117	1
118	1
119	6
120	30
121	3
122	1
123	0
125	0
126	7
127	2
128	1
129	2
130	1
131	0
132	1
133	4
134	0
135	0
137	2
138	38
139	3
140	10
141	1
146	1
147	1
148	21
149	21
150	1
151	0
152	0
153	0
154	7
155	1
156	2
159	0
160	0
161	0
163	1
165	0
166	8
167	0
168	3
170	0
174	0
175	0
176	0
177	7
178	1
180	1
182	24
183	19
184	8
185	7
186	0
187	0
189	0
190	0
193	0
194	0
195	1
204	0
205	0
206	0
207	0
208	0
209	0
210	14
211	66
212	10
213	20
214	2
223	1
224	0
233	0
235	0
237	0
252	0
279	0
281	0
315	48
316	8
317	16
318	2
