Mass Spectrum: 1,3-Dibenzoyl-2,4-bis(4-ethoxycarbonylphenyl)-cyclobutane
Formula: C36H32O6
CAS: 99051-37-3
Molecular weight: 560
m/z	intensity
77	522
105	999
106	147
207	410
208	96
235	124
251	616
294	147
352	6
483	298
529	74
560	74
