Mass Spectrum: [(2,2-Dibromocyclopropyl)methyl]benzene
Formula: C10H10Br2
CAS: 99058-02-3
Molecular weight: 288
m/z	intensity
36	3
37	10
38	37
39	148
40	11
41	18
44	4
45	3
49	5
50	88
51	235
52	49
53	28
61	8
62	32
63	122
64	175
65	197
66	11
69	9
73	2
74	29
75	27
76	32
77	133
78	160
79	24
80	7
81	5
82	5
86	4
87	6
89	47
91	996
92	119
93	14
94	9
98	2
101	10
102	60
103	197
104	999
105	154
106	5
107	13
115	82
116	12
117	25
118	2
119	8
126	11
127	76
128	176
129	305
130	62
131	8
197	2
199	6
201	2
208	3
209	170
210	22
211	165
212	16
288	4
290	8
292	4
