Mass Spectrum: Quinazoline-4-carboxylic acid, 1,2-dihydro-2-oxo-
Formula: C9H6N2O3
CAS: 99066-77-0
Molecular weight: 190
m/z	intensity
33	1
37	8
38	18
39	22
40	20
41	13
42	6
44	999
45	15
46	2
49	2
50	19
51	14
52	14
53	3
54	2
55	6
56	3
57	12
58	2
59	10
60	4
61	4
62	9
63	29
64	33
65	7
66	3
67	2
68	1
69	3
70	2
71	3
72	1
73	6
74	5
75	11
76	19
77	8
78	2
80	3
81	1
82	1
83	2
84	2
85	2
86	1
87	2
88	2
89	5
90	27
91	57
92	15
93	1
94	3
95	1
96	1
97	1
98	1
99	0
100	1
102	11
103	4
104	1
105	0
106	0
108	0
109	0
110	0
111	1
112	0
113	0
114	1
117	50
118	241
119	25
120	1
123	7
124	3
125	0
129	2
130	0
131	0
132	0
139	0
142	0
143	3
145	59
146	267
147	25
148	2
149	0
152	1
157	0
160	0
161	0
162	1
171	2
175	0
188	1
189	1
190	17
191	2
