Mass Spectrum: 2-Pyridinecarbaldehyde 4-allyl(thiosemicarbazone)
Formula: C10H12N4S
CAS: 99069-90-6
Molecular weight: 220
m/z	intensity
15	1
26	5
27	14
28	49
29	7
30	17
32	3
33	1
34	2
37	2
38	6
39	54
40	5
41	111
42	7
43	9
44	2
45	9
46	1
47	2
49	1
50	11
51	43
52	42
53	11
54	14
55	12
56	138
57	17
58	2
59	13
60	21
61	6
62	2
63	9
64	13
65	106
66	10
67	8
68	1
69	1
71	3
72	6
73	8
74	2
75	3
76	6
77	22
78	69
79	144
80	36
81	35
82	3
83	3
85	1
86	2
87	3
88	2
90	1
91	10
92	130
93	19
94	5
95	1
98	2
99	5
100	6
101	3
102	1
103	2
104	37
105	35
106	41
107	999
108	87
109	4
110	2
111	1
113	6
114	53
115	115
116	9
117	7
118	6
119	4
120	76
121	9
122	4
123	2
124	15
125	22
126	3
127	1
130	1
131	1
132	4
133	1
134	1
135	8
136	4
137	3
138	1
140	1
142	15
143	2
144	3
145	13
146	2
147	1
149	1
150	3
158	1
159	2
160	1
162	4
163	17
164	9
165	3
185	1
187	7
188	1
189	1
203	3
205	1
217	2
218	6
219	2
220	60
221	20
222	7
223	1
