Mass Spectrum: 1,3-Oxathiolane, 2-(4-chlorophenyl)-2-methyl-
Formula: C10H11ClOS
CAS: 99070-70-9
Molecular weight: 214
m/z	intensity
15	13
26	7
27	26
35	6
36	6
38	7
39	12
43	249
44	10
45	88
46	5
47	6
50	40
51	39
52	5
58	21
59	152
60	999
61	57
62	52
63	18
64	5
65	5
73	17
74	23
75	100
76	27
77	33
85	9
87	5
89	10
91	7
99	5
101	26
102	22
103	42
104	8
108	6
111	146
112	17
113	46
125	9
133	5
134	7
136	6
137	16
138	11
139	715
140	58
141	233
142	19
149	8
154	104
155	163
156	47
157	52
158	5
167	5
199	157
200	17
201	59
202	6
214	172
215	20
216	65
217	7
