Mass Spectrum: Benzene-1,3-diol, 1-O-benzyl-2-[3-oxo-dodecanoyl]-
Formula: C25H32O4
CAS: 99123-98-5
Molecular weight: 396
m/z	intensity
41	40
42	6
43	67
44	2
49	0
51	4
52	3
53	4
55	27
56	3
57	28
58	0
63	5
64	2
65	38
66	3
67	6
68	0
69	17
70	1
71	22
77	4
78	1
79	3
80	3
81	10
82	1
83	5
84	3
85	13
86	0
89	7
90	7
91	999
92	80
93	4
95	7
97	4
104	3
105	5
107	4
108	19
109	3
110	5
111	1
115	1
121	4
122	9
123	6
131	1
133	1
135	1
136	29
137	106
138	8
139	2
147	3
149	2
150	9
151	5
152	6
153	3
155	12
156	0
157	0
163	25
164	2
165	0
167	0
169	1
176	2
177	4
178	9
179	43
180	4
181	1
189	4
191	32
192	4
193	3
194	0
195	0
197	10
198	1
199	2
200	71
201	11
205	1
219	0
223	40
224	27
225	7
226	16
227	19
228	3
241	23
242	12
243	2
259	7
260	0
263	6
265	3
267	0
269	533
270	93
271	12
272	0
279	0
284	1
287	4
288	19
289	76
290	18
291	3
305	8
306	3
378	25
379	12
380	2
396	73
397	23
398	4
