Mass Spectrum: 4-Imidazolacetic acid, butyl ester
Formula: C9H14N2O2
CAS: 99133-89-8
Molecular weight: 182
m/z	intensity
52	40
53	46
54	108
55	30
56	9
57	108
81	999
82	334
107	55
108	24
182	37
