Mass Spectrum: 5,10-Etheno-1H-[1,2,4]triazolo[1,2-a][1,2]diazocine-1,3(2H)-dione, 7-azido-4,5,6,7,10,11-hexahydro-2-phenyl-
Formula: C16H14N6O2
CAS: 99140-99-5
Molecular weight: 322
m/z	intensity
35	20
36	15
37	30
38	77
39	392
40	163
41	297
42	114
43	456
44	48
45	74
47	47
48	22
49	255
50	76
51	303
52	234
53	174
54	147
55	85
56	66
57	83
58	26
59	20
60	15
61	47
62	20
63	118
64	231
65	346
66	220
67	147
68	67
69	116
70	100
71	56
73	24
74	11
75	20
76	26
77	330
78	289
79	345
80	424
81	100
82	141
83	58
84	163
85	36
86	101
87	15
88	35
89	52
90	93
91	981
92	248
93	249
94	66
95	79
96	32
97	38
98	7
102	14
103	53
104	183
105	279
106	262
107	92
108	29
109	135
110	29
111	16
116	61
117	448
118	845
119	999
120	222
121	111
122	24
123	17
125	9
129	15
130	11
131	166
132	125
133	234
134	68
135	35
136	8
137	8
144	8
145	9
146	118
147	103
148	41
149	33
151	7
158	7
159	36
160	29
161	134
162	14
167	8
174	20
175	83
176	13
177	42
178	14
190	7
203	46
214	28
215	18
227	115
228	99
229	15
240	9
253	19
267	7
279	8
280	8
294	213
295	45
296	16
322	274
323	51
