Mass Spectrum: N-Benzyloxycarbonyl-l-alanyl-l-alanyl-l-alanyl-l-alanine ethylamide
Formula: C22H33N5O6
CAS: 99155-26-7
Molecular weight: 463
m/z	intensity
15	7
17	12
18	31
26	6
27	31
28	58
29	36
30	18
31	8
32	1
36	4
37	4
38	9
39	33
40	8
41	18
42	63
43	37
44	999
45	36
46	104
47	2
49	2
50	27
51	64
52	18
53	21
54	14
55	35
56	37
57	16
58	3
61	3
62	7
63	15
64	4
65	24
66	4
67	2
68	5
69	9
70	113
71	59
72	26
73	6
74	9
75	4
76	5
77	167
78	34
79	317
80	29
81	7
82	8
83	7
84	8
85	4
86	6
87	2
88	1
89	20
90	23
91	90
92	9
93	1
94	1
95	3
96	4
97	9
98	7
99	94
100	15
101	34
102	2
104	1
105	24
106	14
107	217
108	285
109	23
110	2
111	3
112	3
113	75
114	12
115	11
116	4
117	17
118	1
121	1
122	1
123	2
124	3
125	9
126	3
127	8
128	1
134	5
135	2
136	1
137	2
138	1
139	6
140	7
141	357
142	43
143	22
144	3
149	3
150	2
151	3
152	7
153	2
154	1
155	1
159	1
165	1
166	1
167	3
168	12
169	348
170	32
171	4
172	5
178	2
180	1
185	1
186	26
187	4
188	1
194	2
195	2
196	5
197	1
198	2
206	4
207	1
210	2
211	3
212	193
213	122
214	31
215	3
223	1
231	1
238	4
239	5
240	434
241	53
242	7
243	6
249	1
256	2
257	1
258	1
259	1
265	3
266	1
277	15
278	4
279	1
281	1
282	1
283	86
284	92
285	14
286	3
310	1
311	4
320	1
330	1
337	2
348	13
349	3
355	3
356	3
392	1
