Mass Spectrum: 2-Pyridinecarbaldehyde 4-propyl-3-thiosemicarbazone
Formula: C10H14N4S
CAS: 99171-90-1
Molecular weight: 222
m/z	intensity
15	4
16	3
25	1
26	22
27	120
28	111
29	25
30	107
31	2
32	19
33	10
34	29
35	1
36	2
37	10
38	25
39	119
40	25
41	257
42	83
43	402
44	22
45	19
46	6
47	6
48	4
49	7
50	63
51	145
52	159
53	42
54	15
55	104
56	45
57	25
58	243
59	50
60	139
61	20
62	19
63	30
64	42
65	287
66	69
67	22
68	4
69	5
70	7
71	5
72	82
73	11
74	18
75	27
76	41
77	117
78	222
79	416
80	73
81	6
82	2
83	25
84	29
85	18
86	6
87	2
88	2
89	3
90	9
91	38
92	554
93	172
94	38
95	4
96	1
97	3
98	1
99	1
100	8
101	198
102	71
103	25
104	264
105	111
106	91
107	999
108	82
109	4
110	4
111	6
112	5
113	1
114	2
115	5
116	9
117	38
118	18
119	40
120	536
121	100
122	15
123	6
124	48
125	268
126	22
127	11
128	2
129	4
130	4
131	4
132	6
133	3
134	4
135	11
136	10
137	9
138	7
139	2
142	2
143	12
144	88
145	8
146	10
147	50
148	7
149	2
150	7
151	1
152	2
158	2
159	7
160	1
161	19
162	5
163	12
164	20
165	13
166	2
167	1
169	1
171	1
173	1
175	1
176	1
178	4
179	9
180	1
181	1
187	2
188	1
189	55
190	8
191	3
192	1
193	10
194	2
205	1
220	2
221	4
222	578
223	80
224	30
225	3
