Mass Spectrum: 3,5-Heptadienal, 2-ethylidene-6-methyl-
Formula: C10H14O
CAS: 99172-18-6
Molecular weight: 150
m/z	intensity
23	0
25	4
26	37
27	382
28	17
29	268
30	7
31	24
36	0
37	13
38	42
39	514
40	202
41	607
42	50
43	277
44	54
45	22
46	1
47	1
48	2
49	7
50	83
51	206
52	121
53	271
54	63
55	193
56	28
57	43
58	37
59	131
60	21
61	17
62	29
63	88
64	19
65	221
66	114
67	198
68	40
69	168
70	50
71	31
72	11
73	16
74	22
75	27
76	13
77	564
78	123
79	870
80	169
81	124
82	45
83	85
84	10
85	22
86	7
87	10
88	12
89	20
90	12
91	872
92	253
93	260
94	75
95	104
96	33
97	38
98	17
99	9
100	2
101	31
102	11
103	96
104	25
105	389
106	121
107	999
108	256
109	99
110	14
111	11
112	3
113	5
114	6
115	61
116	17
117	125
118	14
119	69
120	21
121	146
122	61
123	33
124	15
125	38
126	19
127	6
128	9
129	30
130	4
131	21
132	22
133	25
134	13
135	533
136	58
137	10
138	4
139	8
140	2
141	5
142	8
143	6
144	2
145	5
146	2
147	8
148	5
149	28
150	835
151	98
152	11
