Mass Spectrum: 2-Oxiranecarboxylic acid, 3-(2,2-dimethoxyethyl)-3-methyl-, methyl ester
Formula: C9H16O5
CAS: 99183-76-3
Molecular weight: 204
m/z	intensity
26	2
27	24
28	0
29	48
30	3
31	53
33	14
38	2
39	36
40	5
41	65
42	11
43	116
44	8
45	81
46	2
47	137
48	3
49	0
50	1
51	3
52	1
53	25
54	5
55	40
56	5
57	7
58	15
59	70
60	3
61	3
63	0
65	1
66	0
67	5
68	2
69	32
70	4
71	13
72	1
73	5
74	3
75	999
76	35
77	7
79	7
80	0
81	30
82	7
83	13
84	4
85	84
86	5
87	17
88	6
89	13
90	2
91	1
93	1
94	1
95	4
96	1
97	11
98	2
99	4
100	0
101	30
102	2
103	2
104	1
105	1
107	1
108	1
109	10
110	1
111	2
112	9
113	60
114	8
115	23
116	6
117	1
121	0
123	0
125	2
127	2
129	1
131	1
135	1
139	0
140	5
141	67
142	6
143	2
145	12
146	1
152	0
155	2
157	1
167	1
171	1
173	4
204	1
