Mass Spectrum: 1-Hexen-3-yne, 2-tert-butyl-
Formula: C10H16
CAS: 99191-89-6
Molecular weight: 136
m/z	intensity
15	105
26	21
27	387
29	536
39	620
41	941
42	29
43	146
50	84
51	259
52	117
53	249
55	222
56	59
57	996
62	13
63	126
64	21
65	167
66	17
67	163
69	653
77	653
78	138
79	999
80	176
81	92
91	594
92	46
93	577
94	33
95	13
105	247
106	105
107	255
119	186
120	19
121	682
122	67
136	591
137	42
