Mass Spectrum: Histamine, 5-chloro-
Formula: C5H8ClN3
CAS: 99221-76-8
Molecular weight: 145
m/z	intensity
41	147
43	161
44	110
45	366
46	37
47	26
49	18
50	14
51	21
52	49
53	29
54	70
55	74
56	22
57	55
60	56
61	18
62	16
63	14
67	15
69	45
71	35
73	40
74	22
75	19
77	23
78	58
79	15
80	17
81	108
82	23
83	18
84	15
85	15
88	23
89	51
90	15
91	20
95	14
97	15
105	15
106	27
111	16
113	15
115	108
116	999
117	74
118	323
119	19
128	17
129	23
145	262
146	26
147	89
