Mass Spectrum: Acetamide, 2-mercapto-N-(4-butoxyphenyl)-
Formula: C12H17NO2S
CAS: 99254-31-6
Molecular weight: 239
m/z	intensity
33	22
34	12
37	5
38	38
39	229
40	83
41	431
42	114
43	74
45	164
46	123
47	539
48	24
49	28
50	32
51	68
52	154
53	192
54	39
55	67
56	19
57	123
58	10
62	14
63	69
64	59
65	77
66	25
67	4
68	6
69	6
70	4
71	4
74	15
75	43
76	17
77	42
78	48
79	59
80	160
81	133
82	10
83	3
89	5
90	21
91	44
92	23
93	19
94	27
95	1
104	9
105	2
106	51
107	99
108	488
109	999
110	85
111	6
113	2
120	17
121	18
122	36
128	2
133	3
135	97
136	49
137	3
138	3
139	29
140	39
148	7
149	6
150	23
151	5
164	15
165	24
166	4
171	1
181	16
183	241
184	25
185	12
196	22
207	8
237	1
239	315
240	44
241	22
