Mass Spectrum: 1,2-Dioxolan-3-one, 5-methyl-4-methylene-
Formula: C5H6O3
CAS: 99268-56-1
Molecular weight: 114
m/z	intensity
37	37
38	57
39	459
40	49
41	125
42	187
43	806
44	204
45	113
46	5
49	13
50	57
51	52
52	26
53	178
54	949
55	184
56	32
57	16
59	7
60	10
61	7
67	5
68	26
69	39
70	70
71	34
72	21
73	33
82	999
83	112
84	8
85	18
86	6
87	5
96	18
97	12
98	16
99	57
100	21
114	77
115	7
