Mass Spectrum: (E,S)-2-Pentenoic acid, 4-amino-5-phenyl-, methyl ester
Formula: C12H15NO2
CAS: 99281-72-8
Molecular weight: 205
m/z	intensity
25	2
27	10
28	24
29	12
30	11
31	2
33	2
39	22
40	3
41	12
42	7
43	6
44	3
45	1
50	3
51	12
52	7
53	5
54	155
55	59
56	7
57	16
58	0
59	6
60	5
62	1
63	9
64	3
65	43
66	3
67	1
68	2
69	1
70	3
71	3
72	1
74	1
75	1
76	1
77	13
78	4
79	1
80	1
82	120
83	17
84	1
86	35
87	2
89	8
90	7
91	139
92	18
93	2
96	1
97	0
98	1
100	1
101	0
102	3
103	7
104	4
105	1
106	1
112	0
114	999
115	65
116	8
117	6
118	5
119	1
120	12
121	1
126	0
127	6
128	15
129	9
130	3
131	2
132	1
142	0
143	3
144	10
145	2
146	3
148	0
150	12
151	0
152	3
157	1
158	3
164	0
172	1
173	1
174	34
175	4
188	0
190	0
196	0
205	0
206	0
