Mass Spectrum: Adamantane, cyclopropylidene-
Formula: C13H18
CAS: 99298-53-0
Molecular weight: 174
m/z	intensity
38	11
39	341
40	59
41	453
42	27
43	16
50	23
51	119
52	73
53	200
54	36
55	159
56	15
58	10
62	7
63	50
64	30
65	201
66	81
67	205
68	26
69	16
71	17
75	10
76	13
77	420
78	282
79	695
80	327
81	362
82	93
83	64
89	26
90	11
91	999
92	516
93	366
94	422
95	184
96	129
102	18
103	91
104	137
105	409
106	225
107	109
108	45
109	8
115	142
116	72
117	468
118	202
119	195
120	94
121	10
127	16
128	46
129	65
130	46
131	674
132	213
133	153
141	9
143	15
144	15
145	262
146	102
147	13
159	229
160	30
173	15
174	494
175	74
