Mass Spectrum: 1,2-Cyclohexanediamine, N,N'-dimethyl-, trans-(.+-.)-
Formula: C8H18N2
CAS: 99295-66-6
Molecular weight: 142
m/z	intensity
42	50
44	450
57	462
70	999
71	62
83	100
84	150
96	37
99	62
111	100
112	312
142	624
143	57
