Mass Spectrum: 6-(3-Methyl-2-pyrazinyl)-6,7-dihydro-5H-cyclopentapyrazine
Formula: C12H12N4
CAS: 99319-22-9
Molecular weight: 212
m/z	intensity
37	6
38	26
39	88
40	59
41	70
42	97
43	8
44	2
45	3
50	10
51	35
52	58
53	23
54	13
55	6
56	3
57	4
59	2
60	4
61	2
62	7
63	22
64	29
65	54
66	41
67	48
68	25
69	5
71	2
72	2
75	3
76	9
77	18
78	102
79	44
80	4
81	7
82	7
83	7
85	2
86	5
87	2
88	3
89	10
90	12
91	18
92	25
93	74
94	42
95	18
101	2
102	7
103	12
104	8
105	13
106	31
107	3
116	11
117	15
118	82
119	999
120	88
121	4
129	7
130	14
131	17
132	8
133	10
142	7
143	24
144	31
145	11
146	4
155	9
156	20
157	22
158	9
168	2
169	7
170	40
171	10
182	5
183	11
184	61
185	26
186	3
194	2
195	3
196	11
197	182
198	24
209	8
210	7
211	397
212	952
213	136
214	10
