Mass Spectrum: Acetic acid, 2-(5-phenyl-1,3,4-oxadiazol-2-yl)thio-
Formula: C10H8N2O3S
CAS: 99361-50-9
Molecular weight: 236
m/z	intensity
33	34
34	3
35	2
36	9
37	13
38	33
39	99
40	40
41	39
42	41
43	54
44	60
45	112
46	111
47	25
48	8
50	114
51	201
52	24
53	8
54	4
55	32
56	16
57	30
59	37
60	22
61	19
62	42
63	114
64	28
65	11
66	3
67	6
68	6
69	19
70	12
71	14
73	20
74	22
75	34
77	999
78	45
79	6
80	3
81	7
82	6
83	10
84	8
85	8
86	8
87	13
88	33
89	100
90	28
91	70
92	5
93	4
94	2
95	4
96	5
97	6
98	4
99	3
100	2
103	167
104	120
105	540
106	42
107	2
108	0
109	2
110	2
111	4
112	4
113	3
114	0
115	2
117	40
118	96
119	17
121	53
122	6
123	3
124	1
125	1
126	0
127	0
129	4
131	0
133	0
134	0
135	1
137	2
138	1
139	3
140	0
141	2
145	624
146	51
147	5
148	1
149	9
150	1
151	1
152	1
157	1
159	8
160	0
163	1
171	3
172	0
175	0
176	2
178	82
179	10
180	4
181	0
185	1
189	2
192	275
193	27
194	11
195	1
213	0
233	0
234	5
236	142
237	17
238	7
239	0
