Mass Spectrum: 2-Formylamino-3-methylbut-2-enoic acid
Formula: C6H9NO3
CAS: 99371-30-9
Molecular weight: 143
m/z	intensity
25	4
26	35
27	195
28	375
29	368
30	182
31	17
35	2
36	6
37	47
38	94
39	455
40	92
41	567
42	378
43	206
44	26
45	124
46	11
49	9
50	30
51	48
52	119
53	81
54	426
55	38
56	45
57	8
58	12
59	40
60	1
61	1
62	1
63	6
64	10
65	6
66	18
67	31
68	999
69	853
70	308
71	19
72	8
73	3
74	1
79	2
80	5
81	3
82	12
83	1
84	6
85	8
86	6
87	4
95	2
96	4
97	150
98	39
99	6
100	53
101	2
107	2
108	1
109	2
110	73
111	3
112	1
113	1
114	39
115	142
116	9
124	3
125	276
126	57
127	4
128	19
129	2
130	2
143	69
144	10
145	0
