Mass Spectrum: Benzaldehyde, 4-benzyloxy-3-fluoro-5-methoxy-
Formula: C15H13FO3
CAS: 99387-67-4
Molecular weight: 260
m/z	intensity
41	42
42	13
43	54
44	24
45	17
46	1
47	4
48	3
49	39
50	21
51	54
52	9
53	17
54	4
55	30
56	14
57	48
58	15
59	9
60	4
61	5
62	8
63	32
64	11
65	154
66	10
67	9
68	9
69	43
70	31
71	23
72	5
73	9
74	3
75	5
76	4
77	30
78	7
79	16
80	4
81	19
82	11
83	29
84	15
85	16
86	41
87	4
88	2
89	27
90	15
91	999
92	97
93	11
94	4
95	13
96	5
97	20
98	7
99	12
100	3
101	7
102	2
103	8
104	4
105	13
106	3
107	7
108	6
109	8
110	7
111	9
112	3
113	7
114	3
115	9
116	2
117	1
118	0
119	3
120	0
121	3
122	3
123	3
124	2
125	5
126	3
127	7
128	3
129	6
130	0
131	0
132	0
133	2
134	0
135	2
136	0
137	4
138	3
139	7
140	3
141	10
142	2
143	2
144	0
145	0
147	1
149	8
150	2
151	3
152	6
153	6
154	2
155	3
156	0
157	2
158	1
159	1
161	0
163	2
164	1
165	36
166	26
167	9
168	2
169	21
170	18
171	11
172	1
173	0
174	0
175	0
176	2
177	2
178	12
179	23
180	23
181	138
182	21
183	4
184	0
185	2
186	4
187	1
188	0
191	0
192	0
193	1
194	0
195	3
196	1
197	2
198	0
199	1
201	0
205	0
207	0
209	2
210	0
211	0
213	0
215	0
217	0
223	0
225	0
227	0
228	0
229	0
231	0
239	0
243	1
248	0
253	0
257	0
259	4
260	13
261	3
262	0
