Mass Spectrum: Ethanone, 1-(1-hydroxy-2-naphthalenyl)-, phenylhydrazone
Formula: C18H16N2O
CAS: 99414-69-4
Molecular weight: 276
m/z	intensity
33	7
34	1
36	1
37	7
38	29
39	133
40	39
41	28
42	154
43	38
44	11
45	29
46	2
50	47
51	98
52	32
53	11
54	5
55	4
56	3
57	22
59	2
60	1
61	6
62	41
63	116
64	65
65	296
66	46
67	5
68	1
69	4
70	6
71	11
72	0
74	27
75	34
76	33
77	132
78	28
79	7
80	4
82	4
83	1
84	3
86	25
87	28
88	53
89	85
91	169
92	239
93	999
94	75
96	1
97	1
98	3
99	6
100	4
101	14
102	30
103	13
104	8
105	9
106	39
107	33
108	21
109	3
110	3
111	3
113	103
114	283
115	574
116	60
118	12
119	2
120	1
121	1
122	1
123	2
125	8
126	21
127	62
128	111
129	84
130	55
131	13
132	24
133	14
134	0
135	0
136	0
138	98
139	80
140	94
141	137
142	44
143	105
144	17
145	3
146	0
148	0
149	1
150	6
151	9
152	16
153	11
154	32
155	40
156	74
157	28
158	10
159	1
163	0
165	3
166	6
167	11
168	58
169	58
170	41
171	145
172	47
173	4
176	0
177	0
178	3
179	2
180	2
183	273
184	148
185	53
186	63
187	8
188	1
189	2
190	1
191	1
193	0
194	0
195	0
196	1
197	1
198	2
199	4
200	1
201	0
202	3
203	3
204	8
205	3
206	8
207	1
208	0
213	0
214	1
215	3
216	6
217	13
218	7
219	1
220	0
226	0
227	0
228	1
229	4
230	29
231	19
232	7
233	6
234	6
235	7
236	1
241	1
242	1
243	1
244	3
245	2
246	2
247	2
248	0
256	5
259	451
260	84
261	34
262	5
263	0
272	0
273	6
274	9
276	583
277	98
278	10
279	0
