Mass Spectrum: Butanenitrile, 4-imino-4-methoxy-
Formula: C5H8N2O
CAS: 99418-75-4
Molecular weight: 112
m/z	intensity
26	82
27	148
28	252
29	92
30	30
31	45
33	15
39	34
40	91
41	390
42	967
43	87
44	471
45	43
46	10
47	8
49	10
50	118
51	65
52	197
53	102
54	453
55	186
56	64
57	65
58	606
59	202
60	24
66	7
67	13
68	226
69	47
70	32
71	22
72	287
73	27
77	13
79	55
80	57
81	999
82	377
83	84
84	31
85	16
86	31
87	2
95	8
97	46
98	13
111	114
112	146
113	30
114	9
