Mass Spectrum: 2-Isopropoxyphenoxy, TMS derivative
Formula: C12H20O2Si
CAS: 99448-05-2
Molecular weight: 224
m/z	intensity
25	8
26	49
27	505
28	10
29	108
30	21
31	24
37	24
38	33
39	282
40	39
41	505
42	89
43	999
44	118
45	399
46	45
47	72
49	9
50	39
51	145
52	85
53	94
54	39
55	66
56	13
57	57
58	27
59	49
60	15
61	69
62	35
63	99
64	65
65	89
66	11
67	25
68	9
69	39
70	6
71	9
72	21
73	731
74	88
75	651
76	79
77	95
78	48
79	41
80	46
81	76
82	25
83	54
85	27
89	19
90	9
91	159
92	96
93	21
95	27
96	8
97	9
99	13
101	4
103	9
104	8
105	25
106	8
107	38
108	25
109	68
110	53
111	13
120	11
121	31
123	8
124	4
127	15
128	4
133	4
134	4
135	62
136	478
137	145
138	47
139	16
147	9
148	4
149	112
150	34
151	969
152	141
153	55
157	9
163	15
165	19
166	819
167	833
168	115
169	29
170	8
179	4
180	6
181	15
182	182
183	39
184	8
209	4
223	6
224	252
225	39
226	6
