Mass Spectrum: 4,9[1',2']-Benzeno-1H-benz[f]isoindole, 2,3,3a,4,9,9a-hexahydro-2-methyl-
Formula: C19H19N
CAS: 99476-24-1
Molecular weight: 261
m/z	intensity
27	15
28	13
29	15
30	6
38	1
39	21
40	3
41	32
42	127
43	13
44	9
50	4
51	8
52	2
53	8
54	5
55	34
56	4
57	97
58	7
62	2
63	8
64	1
65	6
66	1
67	49
68	12
69	1
70	3
71	1
74	3
75	5
76	7
77	5
78	2
79	0
80	8
81	10
82	999
83	101
84	4
85	0
86	1
87	2
88	4
89	7
90	0
91	7
94	2
95	1
96	0
97	0
98	1
99	1
100	2
101	4
102	3
103	1
104	3
105	2
107	1
108	2
109	1
110	0
111	1
112	1
113	2
114	1
115	7
116	3
117	1
118	0
125	1
126	5
127	3
128	5
129	3
130	1
131	2
132	7
133	2
137	1
138	0
139	6
140	1
141	5
142	1
144	7
145	2
146	1
149	4
150	8
151	16
152	20
153	3
154	0
155	1
156	2
157	20
158	2
161	0
162	1
163	4
164	1
165	8
166	1
167	0
168	0
169	0
170	3
171	0
173	0
174	8
175	9
176	32
177	18
178	290
179	58
180	13
181	1
182	1
183	0
184	1
187	2
188	2
189	12
190	4
191	30
192	5
193	0
199	0
200	3
201	4
202	29
203	29
204	7
205	1
206	0
212	0
213	4
214	1
215	19
216	10
217	37
218	30
219	5
220	0
226	0
227	0
228	0
229	0
230	0
231	0
232	1
233	0
246	1
257	0
258	0
259	0
260	17
261	178
262	39
263	4
264	0
