Mass Spectrum: 1,4-Methanoazulen-3-ol, decahydro-1,5,5,8a-tetramethyl-, [1S-(1.alpha.,3.beta.,3a.beta.,4.alpha.,8a.beta.)]-
Formula: C15H26O
CAS: 99481-30-8
Molecular weight: 222
m/z	intensity
26	8
27	204
28	60
29	229
30	14
31	51
35	3
37	5
38	6
39	162
40	61
41	225
42	128
43	477
44	43
45	70
46	5
48	6
49	4
50	8
51	52
52	31
53	192
54	77
55	215
56	151
57	155
58	26
59	37
60	13
61	10
62	9
63	16
64	11
65	157
66	67
67	383
68	137
69	560
70	136
71	183
72	41
73	17
74	8
75	22
76	13
77	195
78	83
79	304
80	128
81	482
82	293
83	259
84	183
85	999
86	125
87	45
88	8
89	14
90	11
91	235
92	169
93	290
94	266
95	903
96	243
97	171
98	139
99	67
100	8
101	5
102	10
103	36
104	22
105	208
106	119
107	251
108	264
109	539
110	142
111	162
112	145
113	52
114	9
115	36
116	18
117	46
118	36
119	606
120	178
121	239
122	161
123	231
124	84
125	134
126	95
127	194
128	39
129	21
130	11
131	33
132	18
133	243
134	186
135	196
136	184
137	270
138	157
139	53
140	18
141	8
142	4
143	7
144	6
145	23
146	12
147	178
148	195
149	150
150	58
151	204
152	96
153	159
154	23
155	6
156	3
157	3
158	3
159	9
160	20
161	209
162	89
163	116
164	53
165	64
166	44
167	10
168	3
169	3
170	3
173	17
174	12
175	65
176	69
177	74
178	41
179	116
180	31
181	8
182	4
183	4
185	4
187	23
189	581
190	177
191	138
192	25
193	33
194	16
195	5
196	4
197	4
203	12
204	862
205	158
206	32
207	482
208	74
209	8
221	6
222	186
223	66
224	7
