Mass Spectrum: (4-Chlorophenyl)-(.beta.-morpholinovinyl)ketone
Formula: C13H14ClNO2
CAS: 99482-89-0
Molecular weight: 251
m/z	intensity
12	2
14	10
15	115
16	8
17	22
18	87
19	8
25	3
26	94
27	317
28	687
29	222
30	107
31	47
32	3
35	6
36	15
37	8
38	23
39	85
40	41
41	263
42	429
43	107
44	76
45	49
46	3
47	2
49	8
50	145
51	167
52	59
53	162
54	180
55	454
56	175
57	105
58	31
59	9
60	5
61	17
62	17
63	40
64	227
66	12
67	77
68	83
69	44
70	65
71	18
72	31
73	32
74	97
75	428
76	110
77	81
78	66
80	43
81	33
82	999
83	80
84	69
85	208
86	274
87	48
88	10
89	41
90	14
91	30
92	13
93	12
94	91
95	17
96	64
97	27
98	30
99	17
100	28
101	64
102	93
103	128
104	35
105	11
106	2
107	1
108	6
109	9
110	88
111	547
112	414
113	203
114	32
115	63
116	34
117	15
118	5
119	3
120	17
121	3
122	9
123	9
125	335
126	33
127	128
128	33
129	27
130	127
131	354
132	42
133	5
135	2
136	26
137	34
138	62
139	603
140	182
141	204
142	21
143	11
144	14
145	65
146	8
147	1
149	20
150	9
151	32
152	11
153	12
154	10
155	4
156	8
157	12
158	232
159	32
160	3
161	2
162	9
163	8
164	67
165	99
166	43
167	49
168	17
169	55
170	11
171	5
172	6
173	1
175	1
176	5
177	6
178	49
179	21
180	42
181	12
182	11
183	3
184	2
185	4
186	5
187	3
188	3
189	1
190	9
191	14
192	60
193	90
194	90
195	35
196	26
197	3
198	2
199	9
200	2
202	2
203	2
204	161
205	23
206	80
207	19
208	28
209	6
210	6
211	2
216	16
217	3
218	1
219	1
220	25
221	14
222	34
223	8
224	9
225	1
232	4
234	449
235	68
236	152
237	22
238	2
249	1
250	31
251	335
252	65
253	115
254	18
255	1
