Mass Spectrum: Acetamide, N-(5-cyanomethyl-1,3,4-thiadiazol-2-yl)-
Formula: C6H6N4OS
CAS: 99553-86-3
Molecular weight: 182
m/z	intensity
33	20
34	10
39	27
40	193
41	50
42	60
43	999
44	101
45	29
46	19
52	18
53	4
55	30
56	22
57	65
58	32
59	29
60	31
63	4
67	8
69	15
71	29
72	5
73	4
74	136
77	18
78	22
81	29
83	23
84	40
88	5
91	12
92	6
98	2
111	3
112	4
114	11
115	29
116	4
117	5
128	5
140	401
141	37
142	8
154	45
167	2
182	86
183	5
