Mass Spectrum: [2-(Morpholin-4-ylmethylen-amino)-thiazol-5-yl]-(4-nitrophenyl)-methanon
Formula: C15H14N4O4S
CAS: 99563-63-0
Molecular weight: 346
m/z	intensity
14	60
15	106
16	30
26	45
27	272
28	172
29	424
30	727
31	60
39	90
40	60
41	484
42	348
43	136
44	45
45	212
50	363
51	45
53	136
54	727
55	318
56	393
57	318
58	287
59	90
60	60
63	106
64	90
67	106
68	257
69	318
70	75
71	181
72	181
74	181
75	348
76	848
77	181
81	166
82	121
83	151
84	515
85	75
86	833
87	60
89	227
92	272
93	75
94	106
95	60
96	75
97	90
98	318
99	227
100	75
101	75
103	90
104	999
105	136
107	60
108	60
109	90
111	136
112	60
113	121
114	45
120	257
121	60
122	90
123	75
124	75
125	181
126	136
127	348
128	60
132	45
133	90
134	60
137	45
138	106
139	60
140	212
141	60
146	45
150	757
151	106
152	106
159	45
161	75
166	106
169	45
175	60
176	227
196	545
197	60
202	60
234	136
235	60
248	60
249	181
250	75
260	106
261	106
262	45
273	60
274	151
283	60
288	75
289	60
299	60
301	106
313	75
315	121
346	606
347	106
348	75
