Mass Spectrum: Cyclohexanol, 1-acetyl-2-ethylidene-
Formula: C10H16O2
CAS: 99572-25-5
Molecular weight: 168
m/z	intensity
26	8
27	126
29	116
30	2
31	18
32	6
37	5
38	8
39	160
40	7
41	235
42	25
43	469
44	22
45	16
49	1
50	12
51	43
52	18
53	96
54	26
55	781
56	35
57	67
58	4
59	9
60	0
62	4
63	10
64	1
65	40
66	16
67	144
68	22
69	91
70	3
71	9
72	1
74	1
75	4
76	4
77	63
78	11
79	418
80	37
81	173
82	20
83	80
84	5
85	2
89	2
91	120
92	19
93	9
94	3
95	30
96	9
97	64
98	6
103	3
104	1
105	35
106	4
107	76
108	14
109	14
110	3
111	4
112	1
117	2
121	2
122	6
123	4
124	7
125	999
126	90
127	4
133	0
135	9
137	1
149	5
150	8
151	6
153	2
168	8
169	1
