Mass Spectrum: 2-(2'-Chloroethoxy)-propene
Formula: C5H9ClO
CAS: 99586-46-6
Molecular weight: 120
m/z	intensity
27	904
28	110
29	160
30	18
31	38
32	2
35	7
36	9
37	24
38	58
39	335
40	59
41	341
42	157
43	999
44	27
45	20
46	1
47	3
48	6
49	36
50	8
51	12
52	2
53	7
54	1
55	9
57	74
58	305
59	59
60	4
61	9
62	33
63	281
64	14
65	93
66	2
67	1
69	1
71	17
72	1
75	1
76	1
77	2
78	2
79	6
81	3
83	1
85	114
86	6
120	157
121	9
122	51
123	3
