Mass Spectrum: Ethanedioic acid, dihydrazide
Formula: C2H6N4O2
CAS: 996-98-5
Molecular weight: 118
m/z	intensity
12	2
13	1
14	1
15	4
16	28
17	59
18	34
26	3
27	13
28	48
29	125
30	98
31	627
32	999
33	24
40	1
41	3
42	16
43	55
44	86
45	3
53	1
54	1
56	4
58	34
59	114
60	5
61	3
70	2
74	3
87	2
90	14
100	21
101	1
103	1
118	550
119	23
120	3
