Mass Spectrum: N-(2-Phenylethyl)(2Z,4E)-octadienamide
Formula: C16H21NO
CAS: 99615-86-8
Molecular weight: 243
m/z	intensity
40	34
41	165
42	26
43	131
44	14
45	3
50	14
51	47
52	20
53	173
54	19
55	159
56	28
57	100
58	6
59	13
60	3
62	5
63	22
64	8
65	95
66	91
67	121
68	22
69	65
70	24
71	58
72	9
73	5
74	2
76	2
77	108
78	37
79	102
80	27
81	370
82	39
83	49
84	18
85	36
86	5
89	11
90	4
91	151
92	17
93	37
94	33
95	235
96	184
97	53
98	19
99	12
101	1
102	3
103	40
104	260
105	257
106	24
107	20
108	12
109	29
110	72
111	37
112	10
113	10
114	1
115	2
116	1
117	5
118	5
119	9
120	14
121	15
122	18
123	999
124	137
125	27
126	8
127	9
128	2
129	4
130	1
131	2
133	2
134	1
135	7
136	4
137	17
138	14
139	16
140	20
141	6
146	1
147	2
148	5
149	9
150	5
151	9
152	51
153	22
154	5
155	5
160	2
161	11
162	2
163	7
164	3
165	9
166	13
167	5
168	2
169	4
171	6
172	2
174	1
176	1
177	4
178	3
179	4
180	13
181	4
182	3
186	1
187	1
191	5
192	2
193	4
194	7
195	3
196	2
197	2
200	965
201	145
202	13
203	2
205	2
206	2
207	2
208	2
209	35
210	6
211	2
214	34
217	2
219	2
221	4
222	2
223	1
225	1
228	8
231	1
233	2
239	1
242	9
243	474
244	82
