Mass Spectrum: N-Isobutylundeca-2(E)-en-8,10-diynamide
Formula: C15H21NO
CAS: 99615-81-3
Molecular weight: 231
m/z	intensity
40	91
41	554
42	83
43	253
44	31
50	52
51	148
52	32
53	270
54	63
55	387
56	148
57	452
58	114
59	25
61	18
62	56
63	352
64	52
65	194
66	53
67	187
68	208
69	174
70	47
71	137
72	77
73	60
74	25
75	33
76	22
77	164
78	54
79	200
80	42
81	159
82	56
83	90
84	64
85	77
89	77
90	18
91	999
92	108
93	51
94	30
95	77
96	38
97	97
98	43
99	27
102	46
103	407
104	107
105	167
106	42
107	44
108	46
109	53
110	21
111	50
112	25
113	22
115	279
116	449
117	238
118	58
119	81
120	55
121	33
122	30
123	34
124	15
125	30
126	50
127	60
128	99
129	263
130	84
131	582
132	158
133	79
134	47
135	47
136	39
137	38
138	19
139	17
141	61
144	38
145	51
146	151
147	132
148	75
149	41
152	10
153	12
157	20
158	27
159	177
160	178
161	73
162	22
163	18
166	9
167	12
169	10
170	14
172	20
173	28
174	144
175	69
176	22
177	12
187	59
188	266
189	60
190	18
191	15
202	201
203	199
204	20
214	19
216	95
230	128
231	167
232	36
