Mass Spectrum: Heptadeca-1,6,11,16-tetraene-9-carboxylic acid, 9-cyano-, methyl ester
Formula: C20H29NO2
CAS: 99631-99-9
Molecular weight: 315
m/z	intensity
25	4
27	77
28	13
29	221
30	13
31	3
38	3
39	149
40	16
41	406
42	36
43	51
44	10
45	7
50	3
51	13
52	14
53	100
54	129
55	999
56	53
57	8
58	15
59	85
60	4
63	4
64	3
65	75
66	42
67	656
68	150
69	60
70	9
71	9
77	78
78	33
79	189
80	82
81	238
82	63
83	32
84	5
85	5
87	2
89	2
90	4
91	102
92	58
93	117
94	55
95	84
96	92
97	15
98	2
100	4
102	3
103	12
104	34
105	59
106	78
107	86
108	75
109	141
110	25
111	4
112	68
113	5
114	6
115	8
116	16
117	29
118	48
119	64
120	65
121	43
122	18
123	7
124	8
125	9
126	5
127	5
128	5
129	16
130	32
131	39
132	62
133	31
134	24
135	18
136	10
137	6
138	19
139	23
140	5
141	7
142	8
143	13
144	37
145	23
146	69
147	33
148	43
149	14
150	11
151	25
152	31
153	12
154	4
155	4
156	8
157	11
158	36
159	15
160	24
161	9
162	12
163	9
164	20
165	9
166	11
167	5
168	2
169	2
170	6
171	6
172	28
173	20
174	73
175	28
176	19
177	8
178	19
179	10
180	3
183	5
184	7
185	4
186	17
187	6
188	13
189	6
190	10
191	6
192	18
193	5
198	4
199	2
200	23
201	10
202	24
203	8
204	13
205	9
206	32
207	24
208	5
212	3
214	11
215	3
216	6
217	3
218	9
219	3
220	4
226	3
228	7
229	2
230	6
231	3
232	16
233	5
234	2
240	2
244	8
245	3
246	15
247	4
256	44
257	9
258	6
260	25
261	6
272	5
274	5
286	8
300	6
314	2
