Mass Spectrum: 2-Propanone, 1-[2-acetyl-3,5-bis(benzyloxy)phenyl]-
Formula: C25H24O4
CAS: 99678-08-7
Molecular weight: 388
m/z	intensity
39	11
41	6
43	40
51	5
63	5
65	67
89	8
91	999
92	75
165	7
166	7
167	6
179	8
180	29
181	75
182	11
213	5
237	5
255	26
279	22
280	16
281	6
283	8
297	18
345	7
346	24
347	6
370	21
371	7
373	49
374	13
388	37
389	10
