Mass Spectrum: Divinylchlorosilane
Formula: C4H7ClSi
CAS: 99692-14-5
Molecular weight: 118
m/z	intensity
26	21
27	59
28	22
29	70
30	7
31	31
41	6
42	8
43	10
53	120
54	72
55	149
56	30
57	63
63	392
64	70
65	381
66	30
67	109
81	18
82	220
83	123
84	20
85	7
88	22
89	50
90	999
91	381
92	400
93	149
94	32
95	8
116	21
117	380
118	62
119	173
120	29
121	10
122	7
