Mass Spectrum: 4-Piperidinecarboxylic acid 2-isopropylhydrazide
Formula: C9H19N3O
CAS: 99706-49-7
Molecular weight: 185
m/z	intensity
35	1
37	1
38	4
39	44
40	3
41	78
42	126
43	104
44	32
45	4
47	2
48	1
49	14
50	2
51	6
52	6
53	24
54	35
55	155
56	176
57	122
58	64
59	163
60	8
65	4
66	2
67	31
68	56
69	33
70	14
71	2
72	35
73	31
74	171
75	8
77	2
78	2
79	2
80	24
81	15
82	220
83	98
84	444
85	66
86	27
87	142
88	7
91	0
92	1
93	4
94	42
95	9
96	8
97	10
98	10
99	8
100	16
101	4
105	0
107	2
108	5
109	13
110	18
111	39
112	999
113	93
114	6
115	1
121	0
122	1
123	4
124	3
125	15
126	6
127	64
128	22
129	71
130	4
135	2
137	2
138	1
139	2
140	1
141	2
142	1
152	1
153	3
155	1
163	1
165	1
167	4
168	1
169	2
170	95
171	9
183	1
184	3
185	190
186	28
187	1
