Mass Spectrum: 5,7-Dioxobicyclo[2.2.2]octane-2,3-dicarboxylic acid
Formula: C10H10O6
CAS: 99745-78-5
Molecular weight: 226
m/z	intensity
20	3
25	6
26	155
27	791
28	67
29	253
30	8
31	33
32	4
33	1
34	1
35	3
36	23
37	27
38	119
39	857
40	403
41	271
42	306
43	161
44	56
45	158
46	14
47	12
48	2
49	10
50	106
51	229
52	159
53	284
54	116
55	649
56	38
57	87
58	6
59	13
60	11
61	13
62	24
63	72
64	30
65	214
66	999
67	114
68	327
69	74
70	26
71	46
72	12
73	18
74	12
75	13
76	9
77	257
78	120
79	655
80	290
81	223
82	195
83	92
84	67
85	283
86	126
87	18
88	2
89	6
90	12
91	92
92	96
93	25
94	573
95	294
96	39
97	80
98	18
99	114
100	30
101	28
102	4
103	3
104	1
105	12
106	63
107	299
108	306
109	75
110	256
111	31
112	20
113	270
114	18
115	4
116	1
117	5
118	21
119	15
120	9
121	30
122	28
123	34
124	47
125	31
126	14
127	3
128	8
129	8
130	2
131	2
132	2
133	5
134	140
135	435
136	162
137	29
138	45
139	48
140	34
141	4
142	1
143	1
145	3
146	3
147	4
148	2
149	5
150	3
151	12
152	176
153	37
154	10
155	12
156	29
157	14
158	11
159	3
160	3
161	3
162	79
163	25
164	12
165	3
166	11
167	15
168	1
169	1
170	2
171	2
172	1
173	1
174	1
175	2
176	1
177	1
178	2
179	9
180	584
181	73
182	21
183	2
184	12
185	2
190	4
193	1
196	1
197	1
198	14
199	2
200	2
201	1
205	1
206	1
207	5
208	629
209	79
210	11
211	3
226	87
227	9
228	2
