Mass Spectrum: 13-Methyl-12-tetradecen-1-ol acetate
Formula: C17H32O2
CAS: 99798-78-4
Molecular weight: 268
m/z	intensity
41	373
42	62
43	554
44	15
45	3
51	3
52	2
53	39
54	85
55	321
56	202
57	112
58	6
59	3
61	117
62	2
65	7
66	28
67	255
68	314
69	764
70	106
71	42
72	2
73	28
74	1
77	5
78	1
79	22
80	27
81	321
82	999
83	301
84	46
85	25
86	9
87	2
91	4
93	11
94	20
95	518
96	488
97	194
98	25
99	4
100	0
101	4
105	0
107	5
108	10
109	217
110	187
111	81
112	14
113	3
114	0
115	0
116	2
121	5
122	11
123	126
124	114
125	26
126	7
127	2
129	0
135	4
136	7
137	62
138	41
139	10
140	4
141	1
143	0
148	1
149	2
150	3
151	22
152	68
153	18
154	2
156	0
162	0
163	0
164	2
165	25
166	16
167	3
171	3
179	4
180	33
181	5
193	13
194	8
195	1
207	3
208	242
209	44
210	4
211	0
213	4
224	0
225	6
226	0
240	1
251	0
252	0
253	1
254	0
266	1
267	2
268	90
269	34
270	5
