Mass Spectrum: 2-Butenoic acid, 3-ethoxy-, ethyl ester
Formula: C8H14O3
CAS: 998-91-4
Molecular weight: 158
m/z	intensity
26	58
27	320
28	8
29	495
30	15
31	155
34	9
37	18
38	45
39	161
40	76
41	140
42	108
43	766
44	46
45	170
46	37
50	29
51	36
52	13
53	30
54	6
55	46
56	69
57	21
58	179
59	11
61	32
62	11
63	6
64	6
65	9
66	28
67	9
68	103
69	390
70	62
71	51
72	28
73	35
74	8
75	7
77	18
78	15
82	9
83	33
84	430
85	999
86	181
87	302
88	62
89	20
97	26
98	20
99	51
101	8
102	139
103	18
104	15
105	6
112	148
113	579
114	71
115	155
129	40
130	77
131	21
141	13
143	91
144	6
158	118
159	9
