Mass Spectrum: Propane(dithioic) acid, ethyl ester
Formula: C5H10S2
CAS: 998-79-8
Molecular weight: 134
m/z	intensity
25	0
26	16
27	113
29	157
33	0
34	1
35	11
37	0
38	1
39	31
40	9
41	31
43	6
45	313
46	1
47	28
48	0
49	0
53	1
54	0
55	4
57	12
58	37
59	41
60	6
61	32
62	3
63	2
64	5
65	0
66	1
67	4
68	2
69	15
70	2
71	62
72	76
73	999
74	10
75	40
76	10
77	94
79	7
81	1
82	0
84	0
85	4
86	0
87	1
88	0
89	6
90	0
98	0
99	0
104	0
105	30
106	182
107	9
108	14
111	0
113	0
114	0
115	0
116	0
117	1
118	0
119	0
120	2
121	0
122	0
125	0
127	0
131	0
132	0
134	532
135	37
136	46
137	2
138	0
