Mass Spectrum: Heptane, 4-chloro-
Formula: C7H15Cl
CAS: 998-95-8
Molecular weight: 134
m/z	intensity
26	16
27	279
28	36
29	272
30	7
31	4
36	5
37	4
38	12
39	193
40	36
41	680
42	352
43	657
44	25
49	26
50	12
51	26
52	9
53	61
54	77
55	811
56	999
57	476
58	20
61	5
62	21
63	46
64	7
65	22
66	8
67	33
68	104
69	561
70	802
71	52
73	5
74	4
75	19
76	13
77	16
78	11
79	8
81	9
82	7
83	119
84	12
85	10
86	7
89	5
90	20
91	41
92	8
93	13
94	13
97	15
98	529
99	55
100	6
