Mass Spectrum: Cyclohexene, 4-methyl-3-(1-methylethylidene)-
Formula: C10H16
CAS: 99805-90-0
Molecular weight: 136
m/z	intensity
25	0
26	13
27	228
28	41
29	121
30	2
37	5
38	21
39	368
40	63
41	363
42	26
43	225
44	8
45	2
46	0
49	0
50	38
51	136
52	50
53	151
54	15
55	108
56	7
57	2
58	29
59	2
60	3
61	1
62	12
63	46
64	12
65	118
66	28
67	154
68	29
69	10
70	1
73	0
74	7
75	8
76	6
77	395
78	80
79	496
80	66
81	33
82	3
83	0
85	0
86	1
87	2
88	0
89	12
91	446
92	131
93	999
94	88
95	11
96	0
98	0
99	0
101	0
102	7
103	41
104	13
105	280
106	59
107	72
108	58
109	5
113	0
115	19
116	3
117	14
118	2
119	69
120	23
121	784
122	70
123	3
127	0
128	1
129	0
131	0
132	1
133	1
134	5
135	0
136	376
137	39
138	2
