Mass Spectrum: Propanamide, 3-(4-chlorophenyl)-3-hydroxy-
Formula: C9H10ClNO2
CAS: 99839-00-6
Molecular weight: 199
m/z	intensity
29	31
30	18
31	15
35	0
36	0
38	0
39	10
40	0
41	16
42	63
43	139
44	121
45	28
46	10
50	7
51	51
52	7
53	2
54	1
55	13
56	5
57	21
58	14
59	999
60	71
61	12
62	0
63	5
64	0
65	20
66	2
67	2
68	3
69	20
70	9
71	24
72	1
73	14
74	23
75	50
76	26
77	510
78	58
79	5
80	0
81	2
82	2
83	6
84	15
85	16
86	7
87	8
88	8
89	8
90	4
91	45
92	3
93	3
94	1
95	5
96	4
97	7
98	18
99	7
100	2
101	27
102	26
103	32
104	7
105	86
106	16
107	1
108	0
109	1
110	8
111	86
112	56
113	145
114	22
115	45
116	9
117	4
118	30
119	4
120	1
121	2
122	0
123	1
124	2
125	20
126	8
127	10
128	4
129	8
130	1
131	1
132	0
133	0
134	11
135	3
136	9
137	54
138	44
139	194
140	187
141	622
142	87
143	146
144	10
145	3
146	6
147	36
148	2
149	0
150	0
151	0
152	5
153	5
154	110
155	15
156	48
157	4
158	1
160	0
161	0
162	1
163	0
164	12
165	20
166	4
167	5
168	2
169	0
170	0
171	1
176	0
179	0
180	15
181	45
182	45
183	15
184	12
185	3
186	0
187	0
191	0
192	0
194	0
195	0
196	1
197	3
198	23
199	146
200	73
201	58
202	22
203	1
