Mass Spectrum: 5-Octyl-1H-[1,2,4]triazol-3-ylamine
Formula: C10H20N4
CAS: 99850-25-6
Molecular weight: 196
m/z	intensity
50	2
51	2
52	6
53	11
54	43
55	29
56	31
57	73
58	28
59	2
64	2
65	3
66	3
67	11
68	9
69	18
70	4
71	3
79	1
80	2
81	8
82	6
83	5
84	3
85	4
86	1
94	1
95	2
96	6
97	72
98	999
99	65
100	3
101	2
109	1
110	21
111	460
112	145
113	12
114	2
115	1
123	3
124	3
125	68
126	8
127	1
137	4
138	2
139	32
140	30
141	3
142	1
151	1
152	2
153	156
154	25
155	3
166	2
167	85
168	12
169	1
181	9
182	1
194	1
195	20
196	123
197	19
198	2
