Mass Spectrum: Benzene, (5-iodopentyl)-
Formula: C11H15I
CAS: 99858-37-4
Molecular weight: 274
m/z	intensity
26	18
27	173
28	45
29	93
30	3
31	21
37	1
38	15
39	201
40	23
41	144
42	11
43	6
44	2
45	1
46	1
50	38
51	99
52	42
53	29
54	6
55	55
56	27
57	1
61	1
62	19
63	71
64	24
65	240
66	15
67	8
68	1
69	13
73	1
74	6
75	20
76	14
77	100
78	70
79	37
80	5
86	2
87	6
88	1
89	54
90	18
91	999
92	88
93	2
101	2
102	13
103	52
104	84
105	68
106	3
108	1
113	1
114	2
115	40
116	23
117	108
118	32
119	16
120	1
127	38
128	15
129	1
136	2
141	15
143	1
146	2
147	75
148	11
149	1
153	2
154	2
155	7
183	2
217	1
227	1
274	15
275	1
