Mass Spectrum: n-Butyl furyl n-propionate
Formula: C11H16O3
CAS: 99861-38-8
Molecular weight: 196
m/z	intensity
29	19
41	62
42	7
43	105
49	7
53	7
55	29
56	7
57	145
58	7
67	39
69	7
70	7
77	7
79	19
80	7
81	39
84	232
85	208
86	39
87	49
91	7
93	19
94	7
95	19
96	29
97	999
98	872
99	347
100	165
101	19
105	7
107	19
110	19
111	386
112	113
113	64
114	19
115	7
119	39
120	19
121	19
123	27
125	39
126	7
127	7
128	19
133	27
134	7
136	19
137	7
139	212
140	39
141	7
149	19
153	145
154	62
155	7
162	19
163	39
167	75
168	29
195	7
196	532
197	183
198	59
