Mass Spectrum: 4-(4-Chloro-2-methyl-phenoxy)-N-hydroxy-butyramide
Formula: C11H14ClNO3
CAS: 99873-43-5
Molecular weight: 243
m/z	intensity
33	16
34	2
35	2
36	5
37	6
38	22
39	153
41	326
42	137
43	193
44	81
45	105
46	5
47	1
49	5
50	53
51	173
52	50
53	24
54	15
55	30
56	242
57	18
58	10
60	212
61	14
62	26
63	84
64	16
65	18
66	6
67	3
69	188
70	14
71	6
72	8
73	46
74	30
75	66
77	507
78	103
79	53
80	4
81	2
82	3
83	8
84	152
85	37
86	196
87	119
89	158
90	36
91	36
92	7
93	2
95	0
96	0
97	2
99	43
100	10
101	42
102	999
103	49
104	8
105	24
107	446
108	37
109	3
111	11
112	31
113	39
114	13
115	16
116	3
117	3
118	1
119	3
120	1
121	1
122	0
123	3
124	16
125	93
126	19
127	39
128	5
129	4
130	2
131	1
132	2
133	8
134	4
135	19
136	2
137	0
138	0
140	20
141	130
142	820
143	100
144	263
145	22
146	4
147	4
148	6
149	0
150	0
152	2
153	6
155	52
156	6
157	12
158	4
162	1
165	2
166	0
167	4
168	7
169	6
170	2
171	3
174	0
175	1
176	2
177	0
178	0
180	1
181	2
182	1
183	3
184	1
185	0
193	7
195	2
197	1
199	0
201	0
208	0
209	6
210	9
211	41
212	5
213	11
214	0
220	0
225	104
226	12
227	35
228	46
229	6
230	9
231	1
233	0
238	0
243	28
244	2
245	7
246	0
