Mass Spectrum: Propane, 2-methyl-1,2-bis(trimethylsiloxy)-
Formula: C10H26O2Si2
CAS: 99875-05-5
Molecular weight: 234
m/z	intensity
27	10
29	19
30	1
31	6
36	0
38	0
39	8
40	0
41	14
42	4
43	49
44	24
45	123
46	7
47	42
48	2
49	1
51	1
52	1
53	4
54	0
55	19
56	4
57	9
58	21
59	48
60	7
61	27
62	1
63	1
65	0
66	34
67	3
68	1
69	1
70	3
71	5
72	15
73	999
74	70
75	190
76	11
77	9
78	0
81	9
82	0
83	0
85	2
86	0
87	2
88	10
89	2
91	0
94	1
95	0
99	2
100	0
101	8
102	9
103	10
104	1
105	3
107	0
111	0
113	2
114	0
115	22
116	4
117	5
118	1
119	3
120	0
129	25
130	6
131	959
132	93
133	68
134	6
135	3
143	0
144	1
145	1
146	0
147	368
148	49
149	33
150	3
151	1
163	0
175	0
203	0
219	30
220	5
221	2
