Mass Spectrum: 2-Propenoic acid, 3-(dimethylamino)-, methyl ester
Formula: C6H11NO2
CAS: 999-59-7
Molecular weight: 129
m/z	intensity
27	164
28	211
29	158
30	149
31	41
32	4
35	5
36	3
37	4
38	14
39	38
40	38
41	123
42	725
43	155
44	119
45	107
46	20
48	1
49	2
50	1
51	10
52	41
53	59
54	101
55	398
56	53
57	9
58	43
59	35
60	1
66	4
67	4
68	83
69	54
70	326
71	79
72	39
74	4
80	13
81	4
82	109
83	6
84	39
85	17
86	17
87	18
88	8
89	2
96	21
97	81
98	999
99	57
100	5
112	26
113	1
114	150
115	7
126	2
128	7
129	322
130	19
