Mass Spectrum: Octane, 4-bromo-
Formula: C8H17Br
CAS: 999-06-4
Molecular weight: 192
m/z	intensity
15	7
26	21
27	255
29	332
30	7
37	2
38	12
39	299
40	43
41	611
42	120
43	362
44	8
50	13
51	31
52	15
53	92
54	42
55	382
56	131
57	699
58	32
62	2
63	7
64	1
65	23
66	6
67	53
68	16
69	117
70	85
71	999
72	56
77	14
78	2
79	16
91	2
93	6
95	7
97	5
112	8
113	199
114	18
119	5
120	3
121	7
122	3
123	2
