Mass Spectrum: 1,3-Dioxan-4-one, 6-methyl-2-octyl-, (2R-cis)-
Formula: C13H24O3
CAS: 99902-25-7
Molecular weight: 228
m/z	intensity
25	2
26	17
27	220
28	46
29	281
30	6
31	34
37	6
38	13
39	150
40	45
41	530
42	303
43	335
44	110
45	245
46	6
50	3
51	5
52	3
53	25
54	32
55	231
56	102
57	214
58	25
59	10
60	18
65	3
66	5
67	51
68	45
69	999
70	74
71	64
72	8
73	9
77	4
79	5
80	3
81	54
82	45
83	142
84	48
85	20
86	14
87	154
88	10
89	12
91	4
93	2
95	33
96	30
97	23
98	32
99	11
100	2
103	9
104	2
105	11
109	7
112	2
113	4
114	4
115	454
116	27
117	4
122	2
123	10
124	17
125	20
126	2
128	9
129	4
130	64
131	7
141	54
142	13
143	218
144	21
146	4
155	6
157	8
171	2
173	7
175	4
182	3
191	4
199	1
227	3
228	3
229	4
