Mass Spectrum: 6-Methyl-2-phenethyl[1,3]dioxan-4-one
Formula: C13H16O3
CAS: 99902-26-8
Molecular weight: 220
m/z	intensity
26	13
27	118
28	6
29	47
30	2
31	24
36	2
37	4
38	15
39	153
40	26
41	204
42	95
43	314
44	43
45	266
46	7
49	2
50	34
51	125
52	34
53	24
54	7
55	72
56	68
57	86
58	9
59	13
60	2
61	2
62	9
63	47
64	11
65	192
66	15
67	18
68	13
69	999
70	65
71	52
72	4
73	18
74	10
75	12
76	16
77	230
78	338
79	162
80	13
81	19
82	11
83	40
84	14
85	29
86	16
87	111
88	7
89	36
90	16
91	749
92	999
93	97
94	5
95	15
96	10
97	31
98	8
99	9
101	4
102	15
103	103
104	327
105	531
106	83
107	32
108	4
109	10
110	5
111	18
112	5
113	6
114	3
115	91
116	245
117	56
118	12
119	9
120	2
121	4
122	3
123	5
124	7
125	9
126	4
127	4
128	13
129	9
130	3
131	18
132	14
133	382
134	532
135	62
136	5
137	3
138	2
139	5
140	2
141	52
142	47
143	8
144	2
145	5
147	3
149	21
150	307
151	54
152	10
176	10
177	2
178	5
190	2
191	7
192	21
193	5
202	10
203	3
204	2
205	4
219	4
220	69
221	12
222	2
