Mass Spectrum: 1-Acetamido-2,4-dichloro-7-nitronaphthalene
Formula: C12H8Cl2N2O3
CAS: 99979-24-5
Molecular weight: 298
m/z	intensity
41	9
42	28
43	999
44	19
45	2
46	1
47	7
48	2
49	3
50	12
51	20
52	9
55	7
56	3
57	5
60	2
61	11
62	22
63	32
64	5
65	2
68	1
69	8
71	2
72	2
73	19
74	17
75	16
76	7
77	2
78	3
81	1
84	1
85	9
86	32
87	24
88	17
89	4
96	3
97	21
98	9
99	16
100	8
101	2
106	1
108	1
109	5
110	9
111	16
112	11
113	23
114	5
121	5
122	5
123	8
124	6
125	2
126	8
127	6
128	1
134	1
135	4
136	6
138	37
139	23
140	12
147	52
148	21
149	28
150	9
151	5
152	1
159	1
161	4
162	5
163	2
164	4
170	13
171	1
172	10
173	12
174	29
175	21
176	14
177	8
180	1
181	3
182	29
183	109
184	26
185	77
186	7
187	13
188	4
189	1
194	1
197	4
198	26
200	16
201	3
202	1
208	7
209	17
210	54
211	16
212	37
213	5
214	6
217	4
221	1
222	18
223	1
224	8
226	4
228	4
229	4
230	1
239	4
240	4
241	3
242	2
252	1
253	1
254	7
256	323
257	41
258	215
259	23
260	36
261	4
263	35
264	2
265	12
266	1
298	34
299	2
300	22
301	5
302	3
