Mass Spectrum: 2-Dimethylamino-3'-methoxyacetophenone
Formula: C11H15NO2
CAS: 99985-55-4
Molecular weight: 193
m/z	intensity
41	24
42	312
43	64
44	12
50	32
51	32
52	12
53	12
56	24
57	44
58	999
59	124
62	24
63	92
64	104
65	24
74	12
75	12
76	24
77	124
78	32
79	12
80	12
82	12
91	24
92	112
93	12
107	52
108	12
121	44
122	12
135	32
150	12
193	32
194	12
