Mass Spectrum: 4a(2H)-Naphthalenemethanol, octahydro-
Formula: C11H20O
CAS: 99992-19-5
Molecular weight: 168
m/z	intensity
26	12
27	140
28	37
29	186
30	2
31	131
38	1
39	164
40	38
41	449
42	48
43	116
45	29
46	10
50	5
51	34
52	23
53	121
54	44
55	304
56	26
57	74
63	9
65	62
66	37
67	366
68	42
69	260
70	28
71	5
77	92
78	24
79	176
80	60
81	999
82	86
83	56
84	0
91	83
92	23
93	87
94	56
95	726
96	72
97	0
105	14
107	39
108	28
109	22
115	0
121	30
122	0
135	9
136	524
137	853
138	102
139	1
150	1
168	14
